
---------- Begin Simulation Statistics ----------
simSeconds                                   0.000025                       # Number of seconds simulated (Second)
simTicks                                        50000                       # Number of ticks simulated (Tick)
finalTick                                       50000                       # Number of ticks from beginning of simulation (restored from checkpoints and never reset) (Tick)
simFreq                                    2000000000                       # The number of ticks per simulated second ((Tick/Second))
hostSeconds                                     15.04                       # Real time elapsed on the host (Second)
hostTickRate                                     3325                       # The number of ticks simulated per host second (ticks/s) ((Tick/Second))
hostMemory                                  142801276                       # Number of bytes of host memory used (Byte)
system.clk_domain.clock                             2                       # Clock period in ticks (Tick)
system.cpu0.power_state.pwrStateResidencyTicks::UNDEFINED        50000                       # Cumulative time (in ticks) in various power states (Tick)
system.cpu1.power_state.pwrStateResidencyTicks::UNDEFINED        50000                       # Cumulative time (in ticks) in various power states (Tick)
system.cpu2.power_state.pwrStateResidencyTicks::UNDEFINED        50000                       # Cumulative time (in ticks) in various power states (Tick)
system.cpu3.power_state.pwrStateResidencyTicks::UNDEFINED        50000                       # Cumulative time (in ticks) in various power states (Tick)
system.cpu4.power_state.pwrStateResidencyTicks::UNDEFINED        50000                       # Cumulative time (in ticks) in various power states (Tick)
system.cpu5.power_state.pwrStateResidencyTicks::UNDEFINED        50000                       # Cumulative time (in ticks) in various power states (Tick)
system.cpu6.power_state.pwrStateResidencyTicks::UNDEFINED        50000                       # Cumulative time (in ticks) in various power states (Tick)
system.cpu7.power_state.pwrStateResidencyTicks::UNDEFINED        50000                       # Cumulative time (in ticks) in various power states (Tick)
system.mem_ctrls0.bytesRead::ruby.dir_cntrl0       328448                       # Number of bytes read from this memory (Byte)
system.mem_ctrls0.bytesRead::total             328448                       # Number of bytes read from this memory (Byte)
system.mem_ctrls0.numReads::ruby.dir_cntrl0         2566                       # Number of read requests responded to by this memory (Count)
system.mem_ctrls0.numReads::total                2566                       # Number of read requests responded to by this memory (Count)
system.mem_ctrls0.bwRead::ruby.dir_cntrl0  13137920000                       # Total read bandwidth from this memory ((Byte/Second))
system.mem_ctrls0.bwRead::total           13137920000                       # Total read bandwidth from this memory ((Byte/Second))
system.mem_ctrls0.bwTotal::ruby.dir_cntrl0  13137920000                       # Total bandwidth to/from this memory ((Byte/Second))
system.mem_ctrls0.bwTotal::total          13137920000                       # Total bandwidth to/from this memory ((Byte/Second))
system.mem_ctrls0.power_state.pwrStateResidencyTicks::UNDEFINED        50000                       # Cumulative time (in ticks) in various power states (Tick)
system.mem_ctrls1.power_state.pwrStateResidencyTicks::UNDEFINED        50000                       # Cumulative time (in ticks) in various power states (Tick)
system.mem_ctrls10.power_state.pwrStateResidencyTicks::UNDEFINED        50000                       # Cumulative time (in ticks) in various power states (Tick)
system.mem_ctrls11.power_state.pwrStateResidencyTicks::UNDEFINED        50000                       # Cumulative time (in ticks) in various power states (Tick)
system.mem_ctrls12.power_state.pwrStateResidencyTicks::UNDEFINED        50000                       # Cumulative time (in ticks) in various power states (Tick)
system.mem_ctrls13.power_state.pwrStateResidencyTicks::UNDEFINED        50000                       # Cumulative time (in ticks) in various power states (Tick)
system.mem_ctrls14.power_state.pwrStateResidencyTicks::UNDEFINED        50000                       # Cumulative time (in ticks) in various power states (Tick)
system.mem_ctrls15.power_state.pwrStateResidencyTicks::UNDEFINED        50000                       # Cumulative time (in ticks) in various power states (Tick)
system.mem_ctrls2.power_state.pwrStateResidencyTicks::UNDEFINED        50000                       # Cumulative time (in ticks) in various power states (Tick)
system.mem_ctrls3.power_state.pwrStateResidencyTicks::UNDEFINED        50000                       # Cumulative time (in ticks) in various power states (Tick)
system.mem_ctrls4.power_state.pwrStateResidencyTicks::UNDEFINED        50000                       # Cumulative time (in ticks) in various power states (Tick)
system.mem_ctrls5.power_state.pwrStateResidencyTicks::UNDEFINED        50000                       # Cumulative time (in ticks) in various power states (Tick)
system.mem_ctrls6.bytesRead::ruby.dir_cntrl6       335488                       # Number of bytes read from this memory (Byte)
system.mem_ctrls6.bytesRead::total             335488                       # Number of bytes read from this memory (Byte)
system.mem_ctrls6.numReads::ruby.dir_cntrl6         2621                       # Number of read requests responded to by this memory (Count)
system.mem_ctrls6.numReads::total                2621                       # Number of read requests responded to by this memory (Count)
system.mem_ctrls6.bwRead::ruby.dir_cntrl6  13419520000                       # Total read bandwidth from this memory ((Byte/Second))
system.mem_ctrls6.bwRead::total           13419520000                       # Total read bandwidth from this memory ((Byte/Second))
system.mem_ctrls6.bwTotal::ruby.dir_cntrl6  13419520000                       # Total bandwidth to/from this memory ((Byte/Second))
system.mem_ctrls6.bwTotal::total          13419520000                       # Total bandwidth to/from this memory ((Byte/Second))
system.mem_ctrls6.power_state.pwrStateResidencyTicks::UNDEFINED        50000                       # Cumulative time (in ticks) in various power states (Tick)
system.mem_ctrls7.power_state.pwrStateResidencyTicks::UNDEFINED        50000                       # Cumulative time (in ticks) in various power states (Tick)
system.mem_ctrls8.power_state.pwrStateResidencyTicks::UNDEFINED        50000                       # Cumulative time (in ticks) in various power states (Tick)
system.mem_ctrls9.power_state.pwrStateResidencyTicks::UNDEFINED        50000                       # Cumulative time (in ticks) in various power states (Tick)
system.ruby.Directory_Controller.DMA_READ |        2566     49.46%     49.46% |           0      0.00%     49.46% |           0      0.00%     49.46% |           0      0.00%     49.46% |           0      0.00%     49.46% |           0      0.00%     49.46% |        2622     50.54%    100.00% |           0      0.00%    100.00% |           0      0.00%    100.00% |           0      0.00%    100.00% |           0      0.00%    100.00% |           0      0.00%    100.00% |           0      0.00%    100.00% |           0      0.00%    100.00% |           0      0.00%    100.00% |           0      0.00%    100.00% (Unspecified)
system.ruby.Directory_Controller.DMA_READ::total         5188                       (Unspecified)
system.ruby.Directory_Controller.Memory_Data |        2545     49.39%     49.39% |           0      0.00%     49.39% |           0      0.00%     49.39% |           0      0.00%     49.39% |           0      0.00%     49.39% |           0      0.00%     49.39% |        2608     50.61%    100.00% |           0      0.00%    100.00% |           0      0.00%    100.00% |           0      0.00%    100.00% |           0      0.00%    100.00% |           0      0.00%    100.00% |           0      0.00%    100.00% |           0      0.00%    100.00% |           0      0.00%    100.00% |           0      0.00%    100.00% (Unspecified)
system.ruby.Directory_Controller.Memory_Data::total         5153                       (Unspecified)
system.ruby.Directory_Controller.I.DMA_READ |        2566     49.46%     49.46% |           0      0.00%     49.46% |           0      0.00%     49.46% |           0      0.00%     49.46% |           0      0.00%     49.46% |           0      0.00%     49.46% |        2622     50.54%    100.00% |           0      0.00%    100.00% |           0      0.00%    100.00% |           0      0.00%    100.00% |           0      0.00%    100.00% |           0      0.00%    100.00% |           0      0.00%    100.00% |           0      0.00%    100.00% |           0      0.00%    100.00% |           0      0.00%    100.00% (Unspecified)
system.ruby.Directory_Controller.I.DMA_READ::total         5188                       (Unspecified)
system.ruby.Directory_Controller.ID.Memory_Data |        2545     49.39%     49.39% |           0      0.00%     49.39% |           0      0.00%     49.39% |           0      0.00%     49.39% |           0      0.00%     49.39% |           0      0.00%     49.39% |        2608     50.61%    100.00% |           0      0.00%    100.00% |           0      0.00%    100.00% |           0      0.00%    100.00% |           0      0.00%    100.00% |           0      0.00%    100.00% |           0      0.00%    100.00% |           0      0.00%    100.00% |           0      0.00%    100.00% |           0      0.00%    100.00% (Unspecified)
system.ruby.Directory_Controller.ID.Memory_Data::total         5153                       (Unspecified)
system.ruby.DMA_Controller.ReadRequest   |           0      0.00%      0.00% |         680     13.10%     13.10% |           0      0.00%     13.10% |         674     12.98%     26.08% |           0      0.00%     26.08% |         680     13.10%     39.18% |           0      0.00%     39.18% |         639     12.31%     51.49% |           0      0.00%     51.49% |         640     12.33%     63.82% |           0      0.00%     63.82% |         636     12.25%     76.07% |           0      0.00%     76.07% |         634     12.21%     88.29% |           0      0.00%     88.29% |         608     11.71%    100.00% (Unspecified)
system.ruby.DMA_Controller.ReadRequest::total         5191                       (Unspecified)
system.ruby.DMA_Controller.Data          |           0      0.00%      0.00% |         676     13.12%     13.12% |           0      0.00%     13.12% |         670     13.01%     26.13% |           0      0.00%     26.13% |         674     13.08%     39.22% |           0      0.00%     39.22% |         633     12.29%     51.50% |           0      0.00%     51.50% |         634     12.31%     63.81% |           0      0.00%     63.81% |         632     12.27%     76.08% |           0      0.00%     76.08% |         630     12.23%     88.31% |           0      0.00%     88.31% |         602     11.69%    100.00% (Unspecified)
system.ruby.DMA_Controller.Data::total           5151                       (Unspecified)
system.ruby.DMA_Controller.READY.ReadRequest |           0      0.00%      0.00% |         680     13.10%     13.10% |           0      0.00%     13.10% |         674     12.98%     26.08% |           0      0.00%     26.08% |         680     13.10%     39.18% |           0      0.00%     39.18% |         639     12.31%     51.49% |           0      0.00%     51.49% |         640     12.33%     63.82% |           0      0.00%     63.82% |         636     12.25%     76.07% |           0      0.00%     76.07% |         634     12.21%     88.29% |           0      0.00%     88.29% |         608     11.71%    100.00% (Unspecified)
system.ruby.DMA_Controller.READY.ReadRequest::total         5191                       (Unspecified)
system.ruby.DMA_Controller.BUSY_RD.Data  |           0      0.00%      0.00% |         676     13.12%     13.12% |           0      0.00%     13.12% |         670     13.01%     26.13% |           0      0.00%     26.13% |         674     13.08%     39.22% |           0      0.00%     39.22% |         633     12.29%     51.50% |           0      0.00%     51.50% |         634     12.31%     63.81% |           0      0.00%     63.81% |         632     12.27%     76.08% |           0      0.00%     76.08% |         630     12.23%     88.31% |           0      0.00%     88.31% |         602     11.69%    100.00% (Unspecified)
system.ruby.DMA_Controller.BUSY_RD.Data::total         5151                       (Unspecified)
system.ruby.clk_domain.clock                        1                       # Clock period in ticks (Tick)
system.ruby.dir_cntrl0.dmaRequestToDir.m_msg_count         2566                       # Number of messages passed the buffer (Count)
system.ruby.dir_cntrl0.dmaRequestToDir.m_buf_msgs     0.051319                       # Average number of messages in buffer ((Count/Tick))
system.ruby.dir_cntrl0.dmaResponseFromDir.m_msg_count         2545                       # Number of messages passed the buffer (Count)
system.ruby.dir_cntrl0.dmaResponseFromDir.m_buf_msgs     0.052599                       # Average number of messages in buffer ((Count/Tick))
system.ruby.dir_cntrl0.dmaResponseFromDir.m_stall_time           85                       # Total number of ticks messages were stalled in this buffer (Tick)
system.ruby.dir_cntrl0.dmaResponseFromDir.m_avg_stall_time     0.033399                       # Average stall ticks per message ((Tick/Count))
system.ruby.dir_cntrl0.power_state.pwrStateResidencyTicks::UNDEFINED        50000                       # Cumulative time (in ticks) in various power states (Tick)
system.ruby.dir_cntrl0.requestToMemory.m_msg_count         2566                       # Number of messages passed the buffer (Count)
system.ruby.dir_cntrl0.requestToMemory.m_buf_msgs     0.133197                       # Average number of messages in buffer ((Count/Tick))
system.ruby.dir_cntrl0.requestToMemory.m_stall_time         4094                       # Total number of ticks messages were stalled in this buffer (Tick)
system.ruby.dir_cntrl0.requestToMemory.m_avg_stall_time     1.595479                       # Average stall ticks per message ((Tick/Count))
system.ruby.dir_cntrl0.responseFromMemory.m_msg_count         2545                       # Number of messages passed the buffer (Count)
system.ruby.dir_cntrl0.responseFromMemory.m_buf_msgs     0.050899                       # Average number of messages in buffer ((Count/Tick))
system.ruby.dir_cntrl1.power_state.pwrStateResidencyTicks::UNDEFINED        50000                       # Cumulative time (in ticks) in various power states (Tick)
system.ruby.dir_cntrl10.power_state.pwrStateResidencyTicks::UNDEFINED        50000                       # Cumulative time (in ticks) in various power states (Tick)
system.ruby.dir_cntrl11.power_state.pwrStateResidencyTicks::UNDEFINED        50000                       # Cumulative time (in ticks) in various power states (Tick)
system.ruby.dir_cntrl12.power_state.pwrStateResidencyTicks::UNDEFINED        50000                       # Cumulative time (in ticks) in various power states (Tick)
system.ruby.dir_cntrl13.power_state.pwrStateResidencyTicks::UNDEFINED        50000                       # Cumulative time (in ticks) in various power states (Tick)
system.ruby.dir_cntrl14.power_state.pwrStateResidencyTicks::UNDEFINED        50000                       # Cumulative time (in ticks) in various power states (Tick)
system.ruby.dir_cntrl15.power_state.pwrStateResidencyTicks::UNDEFINED        50000                       # Cumulative time (in ticks) in various power states (Tick)
system.ruby.dir_cntrl2.power_state.pwrStateResidencyTicks::UNDEFINED        50000                       # Cumulative time (in ticks) in various power states (Tick)
system.ruby.dir_cntrl3.power_state.pwrStateResidencyTicks::UNDEFINED        50000                       # Cumulative time (in ticks) in various power states (Tick)
system.ruby.dir_cntrl4.power_state.pwrStateResidencyTicks::UNDEFINED        50000                       # Cumulative time (in ticks) in various power states (Tick)
system.ruby.dir_cntrl5.power_state.pwrStateResidencyTicks::UNDEFINED        50000                       # Cumulative time (in ticks) in various power states (Tick)
system.ruby.dir_cntrl6.dmaRequestToDir.m_msg_count         2622                       # Number of messages passed the buffer (Count)
system.ruby.dir_cntrl6.dmaRequestToDir.m_buf_msgs     0.052439                       # Average number of messages in buffer ((Count/Tick))
system.ruby.dir_cntrl6.dmaResponseFromDir.m_msg_count         2608                       # Number of messages passed the buffer (Count)
system.ruby.dir_cntrl6.dmaResponseFromDir.m_buf_msgs     0.053899                       # Average number of messages in buffer ((Count/Tick))
system.ruby.dir_cntrl6.dmaResponseFromDir.m_stall_time           87                       # Total number of ticks messages were stalled in this buffer (Tick)
system.ruby.dir_cntrl6.dmaResponseFromDir.m_avg_stall_time     0.033359                       # Average stall ticks per message ((Tick/Count))
system.ruby.dir_cntrl6.power_state.pwrStateResidencyTicks::UNDEFINED        50000                       # Cumulative time (in ticks) in various power states (Tick)
system.ruby.dir_cntrl6.requestToMemory.m_msg_count         2621                       # Number of messages passed the buffer (Count)
system.ruby.dir_cntrl6.requestToMemory.m_buf_msgs     0.134037                       # Average number of messages in buffer ((Count/Tick))
system.ruby.dir_cntrl6.requestToMemory.m_stall_time         4078                       # Total number of ticks messages were stalled in this buffer (Tick)
system.ruby.dir_cntrl6.requestToMemory.m_avg_stall_time     1.555895                       # Average stall ticks per message ((Tick/Count))
system.ruby.dir_cntrl6.responseFromMemory.m_msg_count         2608                       # Number of messages passed the buffer (Count)
system.ruby.dir_cntrl6.responseFromMemory.m_buf_msgs     0.052159                       # Average number of messages in buffer ((Count/Tick))
system.ruby.dir_cntrl7.power_state.pwrStateResidencyTicks::UNDEFINED        50000                       # Cumulative time (in ticks) in various power states (Tick)
system.ruby.dir_cntrl8.power_state.pwrStateResidencyTicks::UNDEFINED        50000                       # Cumulative time (in ticks) in various power states (Tick)
system.ruby.dir_cntrl9.power_state.pwrStateResidencyTicks::UNDEFINED        50000                       # Cumulative time (in ticks) in various power states (Tick)
system.ruby.network.ext_links0.credit_in_links0.power_state.pwrStateResidencyTicks::UNDEFINED        50000                       # Cumulative time (in ticks) in various power states (Tick)
system.ruby.network.ext_links0.credit_in_links1.power_state.pwrStateResidencyTicks::UNDEFINED        50000                       # Cumulative time (in ticks) in various power states (Tick)
system.ruby.network.ext_links0.credit_in_links2.power_state.pwrStateResidencyTicks::UNDEFINED        50000                       # Cumulative time (in ticks) in various power states (Tick)
system.ruby.network.ext_links0.credit_in_links3.power_state.pwrStateResidencyTicks::UNDEFINED        50000                       # Cumulative time (in ticks) in various power states (Tick)
system.ruby.network.ext_links0.credit_in_links4.power_state.pwrStateResidencyTicks::UNDEFINED        50000                       # Cumulative time (in ticks) in various power states (Tick)
system.ruby.network.ext_links0.credit_out_links0.power_state.pwrStateResidencyTicks::UNDEFINED        50000                       # Cumulative time (in ticks) in various power states (Tick)
system.ruby.network.ext_links0.credit_out_links1.power_state.pwrStateResidencyTicks::UNDEFINED        50000                       # Cumulative time (in ticks) in various power states (Tick)
system.ruby.network.ext_links0.credit_out_links2.power_state.pwrStateResidencyTicks::UNDEFINED        50000                       # Cumulative time (in ticks) in various power states (Tick)
system.ruby.network.ext_links0.credit_out_links3.power_state.pwrStateResidencyTicks::UNDEFINED        50000                       # Cumulative time (in ticks) in various power states (Tick)
system.ruby.network.ext_links0.credit_out_links4.power_state.pwrStateResidencyTicks::UNDEFINED        50000                       # Cumulative time (in ticks) in various power states (Tick)
system.ruby.network.ext_links0.ext_node.dma_sequencer.dcache.m_demand_hits            0                       # Number of cache demand hits (Unspecified)
system.ruby.network.ext_links0.ext_node.dma_sequencer.dcache.m_demand_misses            0                       # Number of cache demand misses (Unspecified)
system.ruby.network.ext_links0.ext_node.dma_sequencer.dcache.m_demand_accesses            0                       # Number of cache demand accesses (Unspecified)
system.ruby.network.ext_links0.ext_node.dma_sequencer.power_state.pwrStateResidencyTicks::UNDEFINED        50000                       # Cumulative time (in ticks) in various power states (Tick)
system.ruby.network.ext_links0.ext_node.power_state.pwrStateResidencyTicks::UNDEFINED        50000                       # Cumulative time (in ticks) in various power states (Tick)
system.ruby.network.ext_links0.network_in_links0.power_state.pwrStateResidencyTicks::UNDEFINED        50000                       # Cumulative time (in ticks) in various power states (Tick)
system.ruby.network.ext_links0.network_in_links1.power_state.pwrStateResidencyTicks::UNDEFINED        50000                       # Cumulative time (in ticks) in various power states (Tick)
system.ruby.network.ext_links0.network_in_links2.power_state.pwrStateResidencyTicks::UNDEFINED        50000                       # Cumulative time (in ticks) in various power states (Tick)
system.ruby.network.ext_links0.network_in_links3.power_state.pwrStateResidencyTicks::UNDEFINED        50000                       # Cumulative time (in ticks) in various power states (Tick)
system.ruby.network.ext_links0.network_in_links4.power_state.pwrStateResidencyTicks::UNDEFINED        50000                       # Cumulative time (in ticks) in various power states (Tick)
system.ruby.network.ext_links0.network_out_links0.power_state.pwrStateResidencyTicks::UNDEFINED        50000                       # Cumulative time (in ticks) in various power states (Tick)
system.ruby.network.ext_links0.network_out_links1.power_state.pwrStateResidencyTicks::UNDEFINED        50000                       # Cumulative time (in ticks) in various power states (Tick)
system.ruby.network.ext_links0.network_out_links2.power_state.pwrStateResidencyTicks::UNDEFINED        50000                       # Cumulative time (in ticks) in various power states (Tick)
system.ruby.network.ext_links0.network_out_links3.power_state.pwrStateResidencyTicks::UNDEFINED        50000                       # Cumulative time (in ticks) in various power states (Tick)
system.ruby.network.ext_links0.network_out_links4.power_state.pwrStateResidencyTicks::UNDEFINED        50000                       # Cumulative time (in ticks) in various power states (Tick)
system.ruby.network.ext_links1.credit_in_links0.power_state.pwrStateResidencyTicks::UNDEFINED        50000                       # Cumulative time (in ticks) in various power states (Tick)
system.ruby.network.ext_links1.credit_in_links1.power_state.pwrStateResidencyTicks::UNDEFINED        50000                       # Cumulative time (in ticks) in various power states (Tick)
system.ruby.network.ext_links1.credit_in_links2.power_state.pwrStateResidencyTicks::UNDEFINED        50000                       # Cumulative time (in ticks) in various power states (Tick)
system.ruby.network.ext_links1.credit_in_links3.power_state.pwrStateResidencyTicks::UNDEFINED        50000                       # Cumulative time (in ticks) in various power states (Tick)
system.ruby.network.ext_links1.credit_in_links4.power_state.pwrStateResidencyTicks::UNDEFINED        50000                       # Cumulative time (in ticks) in various power states (Tick)
system.ruby.network.ext_links1.credit_out_links0.power_state.pwrStateResidencyTicks::UNDEFINED        50000                       # Cumulative time (in ticks) in various power states (Tick)
system.ruby.network.ext_links1.credit_out_links1.power_state.pwrStateResidencyTicks::UNDEFINED        50000                       # Cumulative time (in ticks) in various power states (Tick)
system.ruby.network.ext_links1.credit_out_links2.power_state.pwrStateResidencyTicks::UNDEFINED        50000                       # Cumulative time (in ticks) in various power states (Tick)
system.ruby.network.ext_links1.credit_out_links3.power_state.pwrStateResidencyTicks::UNDEFINED        50000                       # Cumulative time (in ticks) in various power states (Tick)
system.ruby.network.ext_links1.credit_out_links4.power_state.pwrStateResidencyTicks::UNDEFINED        50000                       # Cumulative time (in ticks) in various power states (Tick)
system.ruby.network.ext_links1.ext_node.dma_sequencer.dcache.m_demand_hits            0                       # Number of cache demand hits (Unspecified)
system.ruby.network.ext_links1.ext_node.dma_sequencer.dcache.m_demand_misses            0                       # Number of cache demand misses (Unspecified)
system.ruby.network.ext_links1.ext_node.dma_sequencer.dcache.m_demand_accesses            0                       # Number of cache demand accesses (Unspecified)
system.ruby.network.ext_links1.ext_node.dma_sequencer.power_state.pwrStateResidencyTicks::UNDEFINED        50000                       # Cumulative time (in ticks) in various power states (Tick)
system.ruby.network.ext_links1.ext_node.mandatoryQueue.m_msg_count          680                       # Number of messages passed the buffer (Count)
system.ruby.network.ext_links1.ext_node.mandatoryQueue.m_buf_msgs     0.013600                       # Average number of messages in buffer ((Count/Tick))
system.ruby.network.ext_links1.ext_node.power_state.pwrStateResidencyTicks::UNDEFINED        50000                       # Cumulative time (in ticks) in various power states (Tick)
system.ruby.network.ext_links1.ext_node.requestToDir.m_msg_count          680                       # Number of messages passed the buffer (Count)
system.ruby.network.ext_links1.ext_node.requestToDir.m_buf_msgs     0.083158                       # Average number of messages in buffer ((Count/Tick))
system.ruby.network.ext_links1.ext_node.requestToDir.m_stall_time           78                       # Total number of ticks messages were stalled in this buffer (Tick)
system.ruby.network.ext_links1.ext_node.requestToDir.m_avg_stall_time     0.114706                       # Average stall ticks per message ((Tick/Count))
system.ruby.network.ext_links1.ext_node.responseFromDir.m_msg_count          676                       # Number of messages passed the buffer (Count)
system.ruby.network.ext_links1.ext_node.responseFromDir.m_buf_msgs     0.013520                       # Average number of messages in buffer ((Count/Tick))
system.ruby.network.ext_links1.network_in_links0.power_state.pwrStateResidencyTicks::UNDEFINED        50000                       # Cumulative time (in ticks) in various power states (Tick)
system.ruby.network.ext_links1.network_in_links1.power_state.pwrStateResidencyTicks::UNDEFINED        50000                       # Cumulative time (in ticks) in various power states (Tick)
system.ruby.network.ext_links1.network_in_links2.power_state.pwrStateResidencyTicks::UNDEFINED        50000                       # Cumulative time (in ticks) in various power states (Tick)
system.ruby.network.ext_links1.network_in_links3.power_state.pwrStateResidencyTicks::UNDEFINED        50000                       # Cumulative time (in ticks) in various power states (Tick)
system.ruby.network.ext_links1.network_in_links4.power_state.pwrStateResidencyTicks::UNDEFINED        50000                       # Cumulative time (in ticks) in various power states (Tick)
system.ruby.network.ext_links1.network_out_links0.power_state.pwrStateResidencyTicks::UNDEFINED        50000                       # Cumulative time (in ticks) in various power states (Tick)
system.ruby.network.ext_links1.network_out_links1.power_state.pwrStateResidencyTicks::UNDEFINED        50000                       # Cumulative time (in ticks) in various power states (Tick)
system.ruby.network.ext_links1.network_out_links2.power_state.pwrStateResidencyTicks::UNDEFINED        50000                       # Cumulative time (in ticks) in various power states (Tick)
system.ruby.network.ext_links1.network_out_links3.power_state.pwrStateResidencyTicks::UNDEFINED        50000                       # Cumulative time (in ticks) in various power states (Tick)
system.ruby.network.ext_links1.network_out_links4.power_state.pwrStateResidencyTicks::UNDEFINED        50000                       # Cumulative time (in ticks) in various power states (Tick)
system.ruby.network.ext_links10.credit_in_links0.power_state.pwrStateResidencyTicks::UNDEFINED        50000                       # Cumulative time (in ticks) in various power states (Tick)
system.ruby.network.ext_links10.credit_in_links1.power_state.pwrStateResidencyTicks::UNDEFINED        50000                       # Cumulative time (in ticks) in various power states (Tick)
system.ruby.network.ext_links10.credit_in_links2.power_state.pwrStateResidencyTicks::UNDEFINED        50000                       # Cumulative time (in ticks) in various power states (Tick)
system.ruby.network.ext_links10.credit_in_links3.power_state.pwrStateResidencyTicks::UNDEFINED        50000                       # Cumulative time (in ticks) in various power states (Tick)
system.ruby.network.ext_links10.credit_in_links4.power_state.pwrStateResidencyTicks::UNDEFINED        50000                       # Cumulative time (in ticks) in various power states (Tick)
system.ruby.network.ext_links10.credit_out_links0.power_state.pwrStateResidencyTicks::UNDEFINED        50000                       # Cumulative time (in ticks) in various power states (Tick)
system.ruby.network.ext_links10.credit_out_links1.power_state.pwrStateResidencyTicks::UNDEFINED        50000                       # Cumulative time (in ticks) in various power states (Tick)
system.ruby.network.ext_links10.credit_out_links2.power_state.pwrStateResidencyTicks::UNDEFINED        50000                       # Cumulative time (in ticks) in various power states (Tick)
system.ruby.network.ext_links10.credit_out_links3.power_state.pwrStateResidencyTicks::UNDEFINED        50000                       # Cumulative time (in ticks) in various power states (Tick)
system.ruby.network.ext_links10.credit_out_links4.power_state.pwrStateResidencyTicks::UNDEFINED        50000                       # Cumulative time (in ticks) in various power states (Tick)
system.ruby.network.ext_links10.ext_node.dma_sequencer.dcache.m_demand_hits            0                       # Number of cache demand hits (Unspecified)
system.ruby.network.ext_links10.ext_node.dma_sequencer.dcache.m_demand_misses            0                       # Number of cache demand misses (Unspecified)
system.ruby.network.ext_links10.ext_node.dma_sequencer.dcache.m_demand_accesses            0                       # Number of cache demand accesses (Unspecified)
system.ruby.network.ext_links10.ext_node.dma_sequencer.power_state.pwrStateResidencyTicks::UNDEFINED        50000                       # Cumulative time (in ticks) in various power states (Tick)
system.ruby.network.ext_links10.ext_node.power_state.pwrStateResidencyTicks::UNDEFINED        50000                       # Cumulative time (in ticks) in various power states (Tick)
system.ruby.network.ext_links10.network_in_links0.power_state.pwrStateResidencyTicks::UNDEFINED        50000                       # Cumulative time (in ticks) in various power states (Tick)
system.ruby.network.ext_links10.network_in_links1.power_state.pwrStateResidencyTicks::UNDEFINED        50000                       # Cumulative time (in ticks) in various power states (Tick)
system.ruby.network.ext_links10.network_in_links2.power_state.pwrStateResidencyTicks::UNDEFINED        50000                       # Cumulative time (in ticks) in various power states (Tick)
system.ruby.network.ext_links10.network_in_links3.power_state.pwrStateResidencyTicks::UNDEFINED        50000                       # Cumulative time (in ticks) in various power states (Tick)
system.ruby.network.ext_links10.network_in_links4.power_state.pwrStateResidencyTicks::UNDEFINED        50000                       # Cumulative time (in ticks) in various power states (Tick)
system.ruby.network.ext_links10.network_out_links0.power_state.pwrStateResidencyTicks::UNDEFINED        50000                       # Cumulative time (in ticks) in various power states (Tick)
system.ruby.network.ext_links10.network_out_links1.power_state.pwrStateResidencyTicks::UNDEFINED        50000                       # Cumulative time (in ticks) in various power states (Tick)
system.ruby.network.ext_links10.network_out_links2.power_state.pwrStateResidencyTicks::UNDEFINED        50000                       # Cumulative time (in ticks) in various power states (Tick)
system.ruby.network.ext_links10.network_out_links3.power_state.pwrStateResidencyTicks::UNDEFINED        50000                       # Cumulative time (in ticks) in various power states (Tick)
system.ruby.network.ext_links10.network_out_links4.power_state.pwrStateResidencyTicks::UNDEFINED        50000                       # Cumulative time (in ticks) in various power states (Tick)
system.ruby.network.ext_links11.credit_in_links0.power_state.pwrStateResidencyTicks::UNDEFINED        50000                       # Cumulative time (in ticks) in various power states (Tick)
system.ruby.network.ext_links11.credit_in_links1.power_state.pwrStateResidencyTicks::UNDEFINED        50000                       # Cumulative time (in ticks) in various power states (Tick)
system.ruby.network.ext_links11.credit_in_links2.power_state.pwrStateResidencyTicks::UNDEFINED        50000                       # Cumulative time (in ticks) in various power states (Tick)
system.ruby.network.ext_links11.credit_in_links3.power_state.pwrStateResidencyTicks::UNDEFINED        50000                       # Cumulative time (in ticks) in various power states (Tick)
system.ruby.network.ext_links11.credit_in_links4.power_state.pwrStateResidencyTicks::UNDEFINED        50000                       # Cumulative time (in ticks) in various power states (Tick)
system.ruby.network.ext_links11.credit_out_links0.power_state.pwrStateResidencyTicks::UNDEFINED        50000                       # Cumulative time (in ticks) in various power states (Tick)
system.ruby.network.ext_links11.credit_out_links1.power_state.pwrStateResidencyTicks::UNDEFINED        50000                       # Cumulative time (in ticks) in various power states (Tick)
system.ruby.network.ext_links11.credit_out_links2.power_state.pwrStateResidencyTicks::UNDEFINED        50000                       # Cumulative time (in ticks) in various power states (Tick)
system.ruby.network.ext_links11.credit_out_links3.power_state.pwrStateResidencyTicks::UNDEFINED        50000                       # Cumulative time (in ticks) in various power states (Tick)
system.ruby.network.ext_links11.credit_out_links4.power_state.pwrStateResidencyTicks::UNDEFINED        50000                       # Cumulative time (in ticks) in various power states (Tick)
system.ruby.network.ext_links11.ext_node.dma_sequencer.dcache.m_demand_hits            0                       # Number of cache demand hits (Unspecified)
system.ruby.network.ext_links11.ext_node.dma_sequencer.dcache.m_demand_misses            0                       # Number of cache demand misses (Unspecified)
system.ruby.network.ext_links11.ext_node.dma_sequencer.dcache.m_demand_accesses            0                       # Number of cache demand accesses (Unspecified)
system.ruby.network.ext_links11.ext_node.dma_sequencer.power_state.pwrStateResidencyTicks::UNDEFINED        50000                       # Cumulative time (in ticks) in various power states (Tick)
system.ruby.network.ext_links11.ext_node.mandatoryQueue.m_msg_count          636                       # Number of messages passed the buffer (Count)
system.ruby.network.ext_links11.ext_node.mandatoryQueue.m_buf_msgs     0.012720                       # Average number of messages in buffer ((Count/Tick))
system.ruby.network.ext_links11.ext_node.power_state.pwrStateResidencyTicks::UNDEFINED        50000                       # Cumulative time (in ticks) in various power states (Tick)
system.ruby.network.ext_links11.ext_node.requestToDir.m_msg_count          636                       # Number of messages passed the buffer (Count)
system.ruby.network.ext_links11.ext_node.requestToDir.m_buf_msgs     0.077698                       # Average number of messages in buffer ((Count/Tick))
system.ruby.network.ext_links11.ext_node.requestToDir.m_stall_time           69                       # Total number of ticks messages were stalled in this buffer (Tick)
system.ruby.network.ext_links11.ext_node.requestToDir.m_avg_stall_time     0.108491                       # Average stall ticks per message ((Tick/Count))
system.ruby.network.ext_links11.ext_node.responseFromDir.m_msg_count          632                       # Number of messages passed the buffer (Count)
system.ruby.network.ext_links11.ext_node.responseFromDir.m_buf_msgs     0.012640                       # Average number of messages in buffer ((Count/Tick))
system.ruby.network.ext_links11.network_in_links0.power_state.pwrStateResidencyTicks::UNDEFINED        50000                       # Cumulative time (in ticks) in various power states (Tick)
system.ruby.network.ext_links11.network_in_links1.power_state.pwrStateResidencyTicks::UNDEFINED        50000                       # Cumulative time (in ticks) in various power states (Tick)
system.ruby.network.ext_links11.network_in_links2.power_state.pwrStateResidencyTicks::UNDEFINED        50000                       # Cumulative time (in ticks) in various power states (Tick)
system.ruby.network.ext_links11.network_in_links3.power_state.pwrStateResidencyTicks::UNDEFINED        50000                       # Cumulative time (in ticks) in various power states (Tick)
system.ruby.network.ext_links11.network_in_links4.power_state.pwrStateResidencyTicks::UNDEFINED        50000                       # Cumulative time (in ticks) in various power states (Tick)
system.ruby.network.ext_links11.network_out_links0.power_state.pwrStateResidencyTicks::UNDEFINED        50000                       # Cumulative time (in ticks) in various power states (Tick)
system.ruby.network.ext_links11.network_out_links1.power_state.pwrStateResidencyTicks::UNDEFINED        50000                       # Cumulative time (in ticks) in various power states (Tick)
system.ruby.network.ext_links11.network_out_links2.power_state.pwrStateResidencyTicks::UNDEFINED        50000                       # Cumulative time (in ticks) in various power states (Tick)
system.ruby.network.ext_links11.network_out_links3.power_state.pwrStateResidencyTicks::UNDEFINED        50000                       # Cumulative time (in ticks) in various power states (Tick)
system.ruby.network.ext_links11.network_out_links4.power_state.pwrStateResidencyTicks::UNDEFINED        50000                       # Cumulative time (in ticks) in various power states (Tick)
system.ruby.network.ext_links12.credit_in_links0.power_state.pwrStateResidencyTicks::UNDEFINED        50000                       # Cumulative time (in ticks) in various power states (Tick)
system.ruby.network.ext_links12.credit_in_links1.power_state.pwrStateResidencyTicks::UNDEFINED        50000                       # Cumulative time (in ticks) in various power states (Tick)
system.ruby.network.ext_links12.credit_in_links2.power_state.pwrStateResidencyTicks::UNDEFINED        50000                       # Cumulative time (in ticks) in various power states (Tick)
system.ruby.network.ext_links12.credit_in_links3.power_state.pwrStateResidencyTicks::UNDEFINED        50000                       # Cumulative time (in ticks) in various power states (Tick)
system.ruby.network.ext_links12.credit_in_links4.power_state.pwrStateResidencyTicks::UNDEFINED        50000                       # Cumulative time (in ticks) in various power states (Tick)
system.ruby.network.ext_links12.credit_out_links0.power_state.pwrStateResidencyTicks::UNDEFINED        50000                       # Cumulative time (in ticks) in various power states (Tick)
system.ruby.network.ext_links12.credit_out_links1.power_state.pwrStateResidencyTicks::UNDEFINED        50000                       # Cumulative time (in ticks) in various power states (Tick)
system.ruby.network.ext_links12.credit_out_links2.power_state.pwrStateResidencyTicks::UNDEFINED        50000                       # Cumulative time (in ticks) in various power states (Tick)
system.ruby.network.ext_links12.credit_out_links3.power_state.pwrStateResidencyTicks::UNDEFINED        50000                       # Cumulative time (in ticks) in various power states (Tick)
system.ruby.network.ext_links12.credit_out_links4.power_state.pwrStateResidencyTicks::UNDEFINED        50000                       # Cumulative time (in ticks) in various power states (Tick)
system.ruby.network.ext_links12.ext_node.dma_sequencer.dcache.m_demand_hits            0                       # Number of cache demand hits (Unspecified)
system.ruby.network.ext_links12.ext_node.dma_sequencer.dcache.m_demand_misses            0                       # Number of cache demand misses (Unspecified)
system.ruby.network.ext_links12.ext_node.dma_sequencer.dcache.m_demand_accesses            0                       # Number of cache demand accesses (Unspecified)
system.ruby.network.ext_links12.ext_node.dma_sequencer.power_state.pwrStateResidencyTicks::UNDEFINED        50000                       # Cumulative time (in ticks) in various power states (Tick)
system.ruby.network.ext_links12.ext_node.power_state.pwrStateResidencyTicks::UNDEFINED        50000                       # Cumulative time (in ticks) in various power states (Tick)
system.ruby.network.ext_links12.network_in_links0.power_state.pwrStateResidencyTicks::UNDEFINED        50000                       # Cumulative time (in ticks) in various power states (Tick)
system.ruby.network.ext_links12.network_in_links1.power_state.pwrStateResidencyTicks::UNDEFINED        50000                       # Cumulative time (in ticks) in various power states (Tick)
system.ruby.network.ext_links12.network_in_links2.power_state.pwrStateResidencyTicks::UNDEFINED        50000                       # Cumulative time (in ticks) in various power states (Tick)
system.ruby.network.ext_links12.network_in_links3.power_state.pwrStateResidencyTicks::UNDEFINED        50000                       # Cumulative time (in ticks) in various power states (Tick)
system.ruby.network.ext_links12.network_in_links4.power_state.pwrStateResidencyTicks::UNDEFINED        50000                       # Cumulative time (in ticks) in various power states (Tick)
system.ruby.network.ext_links12.network_out_links0.power_state.pwrStateResidencyTicks::UNDEFINED        50000                       # Cumulative time (in ticks) in various power states (Tick)
system.ruby.network.ext_links12.network_out_links1.power_state.pwrStateResidencyTicks::UNDEFINED        50000                       # Cumulative time (in ticks) in various power states (Tick)
system.ruby.network.ext_links12.network_out_links2.power_state.pwrStateResidencyTicks::UNDEFINED        50000                       # Cumulative time (in ticks) in various power states (Tick)
system.ruby.network.ext_links12.network_out_links3.power_state.pwrStateResidencyTicks::UNDEFINED        50000                       # Cumulative time (in ticks) in various power states (Tick)
system.ruby.network.ext_links12.network_out_links4.power_state.pwrStateResidencyTicks::UNDEFINED        50000                       # Cumulative time (in ticks) in various power states (Tick)
system.ruby.network.ext_links13.credit_in_links0.power_state.pwrStateResidencyTicks::UNDEFINED        50000                       # Cumulative time (in ticks) in various power states (Tick)
system.ruby.network.ext_links13.credit_in_links1.power_state.pwrStateResidencyTicks::UNDEFINED        50000                       # Cumulative time (in ticks) in various power states (Tick)
system.ruby.network.ext_links13.credit_in_links2.power_state.pwrStateResidencyTicks::UNDEFINED        50000                       # Cumulative time (in ticks) in various power states (Tick)
system.ruby.network.ext_links13.credit_in_links3.power_state.pwrStateResidencyTicks::UNDEFINED        50000                       # Cumulative time (in ticks) in various power states (Tick)
system.ruby.network.ext_links13.credit_in_links4.power_state.pwrStateResidencyTicks::UNDEFINED        50000                       # Cumulative time (in ticks) in various power states (Tick)
system.ruby.network.ext_links13.credit_out_links0.power_state.pwrStateResidencyTicks::UNDEFINED        50000                       # Cumulative time (in ticks) in various power states (Tick)
system.ruby.network.ext_links13.credit_out_links1.power_state.pwrStateResidencyTicks::UNDEFINED        50000                       # Cumulative time (in ticks) in various power states (Tick)
system.ruby.network.ext_links13.credit_out_links2.power_state.pwrStateResidencyTicks::UNDEFINED        50000                       # Cumulative time (in ticks) in various power states (Tick)
system.ruby.network.ext_links13.credit_out_links3.power_state.pwrStateResidencyTicks::UNDEFINED        50000                       # Cumulative time (in ticks) in various power states (Tick)
system.ruby.network.ext_links13.credit_out_links4.power_state.pwrStateResidencyTicks::UNDEFINED        50000                       # Cumulative time (in ticks) in various power states (Tick)
system.ruby.network.ext_links13.ext_node.dma_sequencer.dcache.m_demand_hits            0                       # Number of cache demand hits (Unspecified)
system.ruby.network.ext_links13.ext_node.dma_sequencer.dcache.m_demand_misses            0                       # Number of cache demand misses (Unspecified)
system.ruby.network.ext_links13.ext_node.dma_sequencer.dcache.m_demand_accesses            0                       # Number of cache demand accesses (Unspecified)
system.ruby.network.ext_links13.ext_node.dma_sequencer.power_state.pwrStateResidencyTicks::UNDEFINED        50000                       # Cumulative time (in ticks) in various power states (Tick)
system.ruby.network.ext_links13.ext_node.mandatoryQueue.m_msg_count          634                       # Number of messages passed the buffer (Count)
system.ruby.network.ext_links13.ext_node.mandatoryQueue.m_buf_msgs     0.012680                       # Average number of messages in buffer ((Count/Tick))
system.ruby.network.ext_links13.ext_node.power_state.pwrStateResidencyTicks::UNDEFINED        50000                       # Cumulative time (in ticks) in various power states (Tick)
system.ruby.network.ext_links13.ext_node.requestToDir.m_msg_count          634                       # Number of messages passed the buffer (Count)
system.ruby.network.ext_links13.ext_node.requestToDir.m_buf_msgs     0.077178                       # Average number of messages in buffer ((Count/Tick))
system.ruby.network.ext_links13.ext_node.requestToDir.m_stall_time           55                       # Total number of ticks messages were stalled in this buffer (Tick)
system.ruby.network.ext_links13.ext_node.requestToDir.m_avg_stall_time     0.086751                       # Average stall ticks per message ((Tick/Count))
system.ruby.network.ext_links13.ext_node.responseFromDir.m_msg_count          630                       # Number of messages passed the buffer (Count)
system.ruby.network.ext_links13.ext_node.responseFromDir.m_buf_msgs     0.012600                       # Average number of messages in buffer ((Count/Tick))
system.ruby.network.ext_links13.network_in_links0.power_state.pwrStateResidencyTicks::UNDEFINED        50000                       # Cumulative time (in ticks) in various power states (Tick)
system.ruby.network.ext_links13.network_in_links1.power_state.pwrStateResidencyTicks::UNDEFINED        50000                       # Cumulative time (in ticks) in various power states (Tick)
system.ruby.network.ext_links13.network_in_links2.power_state.pwrStateResidencyTicks::UNDEFINED        50000                       # Cumulative time (in ticks) in various power states (Tick)
system.ruby.network.ext_links13.network_in_links3.power_state.pwrStateResidencyTicks::UNDEFINED        50000                       # Cumulative time (in ticks) in various power states (Tick)
system.ruby.network.ext_links13.network_in_links4.power_state.pwrStateResidencyTicks::UNDEFINED        50000                       # Cumulative time (in ticks) in various power states (Tick)
system.ruby.network.ext_links13.network_out_links0.power_state.pwrStateResidencyTicks::UNDEFINED        50000                       # Cumulative time (in ticks) in various power states (Tick)
system.ruby.network.ext_links13.network_out_links1.power_state.pwrStateResidencyTicks::UNDEFINED        50000                       # Cumulative time (in ticks) in various power states (Tick)
system.ruby.network.ext_links13.network_out_links2.power_state.pwrStateResidencyTicks::UNDEFINED        50000                       # Cumulative time (in ticks) in various power states (Tick)
system.ruby.network.ext_links13.network_out_links3.power_state.pwrStateResidencyTicks::UNDEFINED        50000                       # Cumulative time (in ticks) in various power states (Tick)
system.ruby.network.ext_links13.network_out_links4.power_state.pwrStateResidencyTicks::UNDEFINED        50000                       # Cumulative time (in ticks) in various power states (Tick)
system.ruby.network.ext_links14.credit_in_links0.power_state.pwrStateResidencyTicks::UNDEFINED        50000                       # Cumulative time (in ticks) in various power states (Tick)
system.ruby.network.ext_links14.credit_in_links1.power_state.pwrStateResidencyTicks::UNDEFINED        50000                       # Cumulative time (in ticks) in various power states (Tick)
system.ruby.network.ext_links14.credit_in_links2.power_state.pwrStateResidencyTicks::UNDEFINED        50000                       # Cumulative time (in ticks) in various power states (Tick)
system.ruby.network.ext_links14.credit_in_links3.power_state.pwrStateResidencyTicks::UNDEFINED        50000                       # Cumulative time (in ticks) in various power states (Tick)
system.ruby.network.ext_links14.credit_in_links4.power_state.pwrStateResidencyTicks::UNDEFINED        50000                       # Cumulative time (in ticks) in various power states (Tick)
system.ruby.network.ext_links14.credit_out_links0.power_state.pwrStateResidencyTicks::UNDEFINED        50000                       # Cumulative time (in ticks) in various power states (Tick)
system.ruby.network.ext_links14.credit_out_links1.power_state.pwrStateResidencyTicks::UNDEFINED        50000                       # Cumulative time (in ticks) in various power states (Tick)
system.ruby.network.ext_links14.credit_out_links2.power_state.pwrStateResidencyTicks::UNDEFINED        50000                       # Cumulative time (in ticks) in various power states (Tick)
system.ruby.network.ext_links14.credit_out_links3.power_state.pwrStateResidencyTicks::UNDEFINED        50000                       # Cumulative time (in ticks) in various power states (Tick)
system.ruby.network.ext_links14.credit_out_links4.power_state.pwrStateResidencyTicks::UNDEFINED        50000                       # Cumulative time (in ticks) in various power states (Tick)
system.ruby.network.ext_links14.ext_node.dma_sequencer.dcache.m_demand_hits            0                       # Number of cache demand hits (Unspecified)
system.ruby.network.ext_links14.ext_node.dma_sequencer.dcache.m_demand_misses            0                       # Number of cache demand misses (Unspecified)
system.ruby.network.ext_links14.ext_node.dma_sequencer.dcache.m_demand_accesses            0                       # Number of cache demand accesses (Unspecified)
system.ruby.network.ext_links14.ext_node.dma_sequencer.power_state.pwrStateResidencyTicks::UNDEFINED        50000                       # Cumulative time (in ticks) in various power states (Tick)
system.ruby.network.ext_links14.ext_node.power_state.pwrStateResidencyTicks::UNDEFINED        50000                       # Cumulative time (in ticks) in various power states (Tick)
system.ruby.network.ext_links14.network_in_links0.power_state.pwrStateResidencyTicks::UNDEFINED        50000                       # Cumulative time (in ticks) in various power states (Tick)
system.ruby.network.ext_links14.network_in_links1.power_state.pwrStateResidencyTicks::UNDEFINED        50000                       # Cumulative time (in ticks) in various power states (Tick)
system.ruby.network.ext_links14.network_in_links2.power_state.pwrStateResidencyTicks::UNDEFINED        50000                       # Cumulative time (in ticks) in various power states (Tick)
system.ruby.network.ext_links14.network_in_links3.power_state.pwrStateResidencyTicks::UNDEFINED        50000                       # Cumulative time (in ticks) in various power states (Tick)
system.ruby.network.ext_links14.network_in_links4.power_state.pwrStateResidencyTicks::UNDEFINED        50000                       # Cumulative time (in ticks) in various power states (Tick)
system.ruby.network.ext_links14.network_out_links0.power_state.pwrStateResidencyTicks::UNDEFINED        50000                       # Cumulative time (in ticks) in various power states (Tick)
system.ruby.network.ext_links14.network_out_links1.power_state.pwrStateResidencyTicks::UNDEFINED        50000                       # Cumulative time (in ticks) in various power states (Tick)
system.ruby.network.ext_links14.network_out_links2.power_state.pwrStateResidencyTicks::UNDEFINED        50000                       # Cumulative time (in ticks) in various power states (Tick)
system.ruby.network.ext_links14.network_out_links3.power_state.pwrStateResidencyTicks::UNDEFINED        50000                       # Cumulative time (in ticks) in various power states (Tick)
system.ruby.network.ext_links14.network_out_links4.power_state.pwrStateResidencyTicks::UNDEFINED        50000                       # Cumulative time (in ticks) in various power states (Tick)
system.ruby.network.ext_links15.credit_in_links0.power_state.pwrStateResidencyTicks::UNDEFINED        50000                       # Cumulative time (in ticks) in various power states (Tick)
system.ruby.network.ext_links15.credit_in_links1.power_state.pwrStateResidencyTicks::UNDEFINED        50000                       # Cumulative time (in ticks) in various power states (Tick)
system.ruby.network.ext_links15.credit_in_links2.power_state.pwrStateResidencyTicks::UNDEFINED        50000                       # Cumulative time (in ticks) in various power states (Tick)
system.ruby.network.ext_links15.credit_in_links3.power_state.pwrStateResidencyTicks::UNDEFINED        50000                       # Cumulative time (in ticks) in various power states (Tick)
system.ruby.network.ext_links15.credit_in_links4.power_state.pwrStateResidencyTicks::UNDEFINED        50000                       # Cumulative time (in ticks) in various power states (Tick)
system.ruby.network.ext_links15.credit_out_links0.power_state.pwrStateResidencyTicks::UNDEFINED        50000                       # Cumulative time (in ticks) in various power states (Tick)
system.ruby.network.ext_links15.credit_out_links1.power_state.pwrStateResidencyTicks::UNDEFINED        50000                       # Cumulative time (in ticks) in various power states (Tick)
system.ruby.network.ext_links15.credit_out_links2.power_state.pwrStateResidencyTicks::UNDEFINED        50000                       # Cumulative time (in ticks) in various power states (Tick)
system.ruby.network.ext_links15.credit_out_links3.power_state.pwrStateResidencyTicks::UNDEFINED        50000                       # Cumulative time (in ticks) in various power states (Tick)
system.ruby.network.ext_links15.credit_out_links4.power_state.pwrStateResidencyTicks::UNDEFINED        50000                       # Cumulative time (in ticks) in various power states (Tick)
system.ruby.network.ext_links15.ext_node.dma_sequencer.dcache.m_demand_hits            0                       # Number of cache demand hits (Unspecified)
system.ruby.network.ext_links15.ext_node.dma_sequencer.dcache.m_demand_misses            0                       # Number of cache demand misses (Unspecified)
system.ruby.network.ext_links15.ext_node.dma_sequencer.dcache.m_demand_accesses            0                       # Number of cache demand accesses (Unspecified)
system.ruby.network.ext_links15.ext_node.dma_sequencer.power_state.pwrStateResidencyTicks::UNDEFINED        50000                       # Cumulative time (in ticks) in various power states (Tick)
system.ruby.network.ext_links15.ext_node.mandatoryQueue.m_msg_count          608                       # Number of messages passed the buffer (Count)
system.ruby.network.ext_links15.ext_node.mandatoryQueue.m_buf_msgs     0.012160                       # Average number of messages in buffer ((Count/Tick))
system.ruby.network.ext_links15.ext_node.power_state.pwrStateResidencyTicks::UNDEFINED        50000                       # Cumulative time (in ticks) in various power states (Tick)
system.ruby.network.ext_links15.ext_node.requestToDir.m_msg_count          608                       # Number of messages passed the buffer (Count)
system.ruby.network.ext_links15.ext_node.requestToDir.m_buf_msgs     0.074419                       # Average number of messages in buffer ((Count/Tick))
system.ruby.network.ext_links15.ext_node.requestToDir.m_stall_time           73                       # Total number of ticks messages were stalled in this buffer (Tick)
system.ruby.network.ext_links15.ext_node.requestToDir.m_avg_stall_time     0.120066                       # Average stall ticks per message ((Tick/Count))
system.ruby.network.ext_links15.ext_node.responseFromDir.m_msg_count          602                       # Number of messages passed the buffer (Count)
system.ruby.network.ext_links15.ext_node.responseFromDir.m_buf_msgs     0.012040                       # Average number of messages in buffer ((Count/Tick))
system.ruby.network.ext_links15.network_in_links0.power_state.pwrStateResidencyTicks::UNDEFINED        50000                       # Cumulative time (in ticks) in various power states (Tick)
system.ruby.network.ext_links15.network_in_links1.power_state.pwrStateResidencyTicks::UNDEFINED        50000                       # Cumulative time (in ticks) in various power states (Tick)
system.ruby.network.ext_links15.network_in_links2.power_state.pwrStateResidencyTicks::UNDEFINED        50000                       # Cumulative time (in ticks) in various power states (Tick)
system.ruby.network.ext_links15.network_in_links3.power_state.pwrStateResidencyTicks::UNDEFINED        50000                       # Cumulative time (in ticks) in various power states (Tick)
system.ruby.network.ext_links15.network_in_links4.power_state.pwrStateResidencyTicks::UNDEFINED        50000                       # Cumulative time (in ticks) in various power states (Tick)
system.ruby.network.ext_links15.network_out_links0.power_state.pwrStateResidencyTicks::UNDEFINED        50000                       # Cumulative time (in ticks) in various power states (Tick)
system.ruby.network.ext_links15.network_out_links1.power_state.pwrStateResidencyTicks::UNDEFINED        50000                       # Cumulative time (in ticks) in various power states (Tick)
system.ruby.network.ext_links15.network_out_links2.power_state.pwrStateResidencyTicks::UNDEFINED        50000                       # Cumulative time (in ticks) in various power states (Tick)
system.ruby.network.ext_links15.network_out_links3.power_state.pwrStateResidencyTicks::UNDEFINED        50000                       # Cumulative time (in ticks) in various power states (Tick)
system.ruby.network.ext_links15.network_out_links4.power_state.pwrStateResidencyTicks::UNDEFINED        50000                       # Cumulative time (in ticks) in various power states (Tick)
system.ruby.network.ext_links16.credit_in_links0.power_state.pwrStateResidencyTicks::UNDEFINED        50000                       # Cumulative time (in ticks) in various power states (Tick)
system.ruby.network.ext_links16.credit_in_links1.power_state.pwrStateResidencyTicks::UNDEFINED        50000                       # Cumulative time (in ticks) in various power states (Tick)
system.ruby.network.ext_links16.credit_in_links2.power_state.pwrStateResidencyTicks::UNDEFINED        50000                       # Cumulative time (in ticks) in various power states (Tick)
system.ruby.network.ext_links16.credit_in_links3.power_state.pwrStateResidencyTicks::UNDEFINED        50000                       # Cumulative time (in ticks) in various power states (Tick)
system.ruby.network.ext_links16.credit_in_links4.power_state.pwrStateResidencyTicks::UNDEFINED        50000                       # Cumulative time (in ticks) in various power states (Tick)
system.ruby.network.ext_links16.credit_out_links0.power_state.pwrStateResidencyTicks::UNDEFINED        50000                       # Cumulative time (in ticks) in various power states (Tick)
system.ruby.network.ext_links16.credit_out_links1.power_state.pwrStateResidencyTicks::UNDEFINED        50000                       # Cumulative time (in ticks) in various power states (Tick)
system.ruby.network.ext_links16.credit_out_links2.power_state.pwrStateResidencyTicks::UNDEFINED        50000                       # Cumulative time (in ticks) in various power states (Tick)
system.ruby.network.ext_links16.credit_out_links3.power_state.pwrStateResidencyTicks::UNDEFINED        50000                       # Cumulative time (in ticks) in various power states (Tick)
system.ruby.network.ext_links16.credit_out_links4.power_state.pwrStateResidencyTicks::UNDEFINED        50000                       # Cumulative time (in ticks) in various power states (Tick)
system.ruby.network.ext_links16.network_in_links0.power_state.pwrStateResidencyTicks::UNDEFINED        50000                       # Cumulative time (in ticks) in various power states (Tick)
system.ruby.network.ext_links16.network_in_links1.power_state.pwrStateResidencyTicks::UNDEFINED        50000                       # Cumulative time (in ticks) in various power states (Tick)
system.ruby.network.ext_links16.network_in_links2.power_state.pwrStateResidencyTicks::UNDEFINED        50000                       # Cumulative time (in ticks) in various power states (Tick)
system.ruby.network.ext_links16.network_in_links3.power_state.pwrStateResidencyTicks::UNDEFINED        50000                       # Cumulative time (in ticks) in various power states (Tick)
system.ruby.network.ext_links16.network_in_links4.power_state.pwrStateResidencyTicks::UNDEFINED        50000                       # Cumulative time (in ticks) in various power states (Tick)
system.ruby.network.ext_links16.network_out_links0.power_state.pwrStateResidencyTicks::UNDEFINED        50000                       # Cumulative time (in ticks) in various power states (Tick)
system.ruby.network.ext_links16.network_out_links1.power_state.pwrStateResidencyTicks::UNDEFINED        50000                       # Cumulative time (in ticks) in various power states (Tick)
system.ruby.network.ext_links16.network_out_links2.power_state.pwrStateResidencyTicks::UNDEFINED        50000                       # Cumulative time (in ticks) in various power states (Tick)
system.ruby.network.ext_links16.network_out_links3.power_state.pwrStateResidencyTicks::UNDEFINED        50000                       # Cumulative time (in ticks) in various power states (Tick)
system.ruby.network.ext_links16.network_out_links4.power_state.pwrStateResidencyTicks::UNDEFINED        50000                       # Cumulative time (in ticks) in various power states (Tick)
system.ruby.network.ext_links17.credit_in_links0.power_state.pwrStateResidencyTicks::UNDEFINED        50000                       # Cumulative time (in ticks) in various power states (Tick)
system.ruby.network.ext_links17.credit_in_links1.power_state.pwrStateResidencyTicks::UNDEFINED        50000                       # Cumulative time (in ticks) in various power states (Tick)
system.ruby.network.ext_links17.credit_in_links2.power_state.pwrStateResidencyTicks::UNDEFINED        50000                       # Cumulative time (in ticks) in various power states (Tick)
system.ruby.network.ext_links17.credit_in_links3.power_state.pwrStateResidencyTicks::UNDEFINED        50000                       # Cumulative time (in ticks) in various power states (Tick)
system.ruby.network.ext_links17.credit_in_links4.power_state.pwrStateResidencyTicks::UNDEFINED        50000                       # Cumulative time (in ticks) in various power states (Tick)
system.ruby.network.ext_links17.credit_out_links0.power_state.pwrStateResidencyTicks::UNDEFINED        50000                       # Cumulative time (in ticks) in various power states (Tick)
system.ruby.network.ext_links17.credit_out_links1.power_state.pwrStateResidencyTicks::UNDEFINED        50000                       # Cumulative time (in ticks) in various power states (Tick)
system.ruby.network.ext_links17.credit_out_links2.power_state.pwrStateResidencyTicks::UNDEFINED        50000                       # Cumulative time (in ticks) in various power states (Tick)
system.ruby.network.ext_links17.credit_out_links3.power_state.pwrStateResidencyTicks::UNDEFINED        50000                       # Cumulative time (in ticks) in various power states (Tick)
system.ruby.network.ext_links17.credit_out_links4.power_state.pwrStateResidencyTicks::UNDEFINED        50000                       # Cumulative time (in ticks) in various power states (Tick)
system.ruby.network.ext_links17.network_in_links0.power_state.pwrStateResidencyTicks::UNDEFINED        50000                       # Cumulative time (in ticks) in various power states (Tick)
system.ruby.network.ext_links17.network_in_links1.power_state.pwrStateResidencyTicks::UNDEFINED        50000                       # Cumulative time (in ticks) in various power states (Tick)
system.ruby.network.ext_links17.network_in_links2.power_state.pwrStateResidencyTicks::UNDEFINED        50000                       # Cumulative time (in ticks) in various power states (Tick)
system.ruby.network.ext_links17.network_in_links3.power_state.pwrStateResidencyTicks::UNDEFINED        50000                       # Cumulative time (in ticks) in various power states (Tick)
system.ruby.network.ext_links17.network_in_links4.power_state.pwrStateResidencyTicks::UNDEFINED        50000                       # Cumulative time (in ticks) in various power states (Tick)
system.ruby.network.ext_links17.network_out_links0.power_state.pwrStateResidencyTicks::UNDEFINED        50000                       # Cumulative time (in ticks) in various power states (Tick)
system.ruby.network.ext_links17.network_out_links1.power_state.pwrStateResidencyTicks::UNDEFINED        50000                       # Cumulative time (in ticks) in various power states (Tick)
system.ruby.network.ext_links17.network_out_links2.power_state.pwrStateResidencyTicks::UNDEFINED        50000                       # Cumulative time (in ticks) in various power states (Tick)
system.ruby.network.ext_links17.network_out_links3.power_state.pwrStateResidencyTicks::UNDEFINED        50000                       # Cumulative time (in ticks) in various power states (Tick)
system.ruby.network.ext_links17.network_out_links4.power_state.pwrStateResidencyTicks::UNDEFINED        50000                       # Cumulative time (in ticks) in various power states (Tick)
system.ruby.network.ext_links18.credit_in_links0.power_state.pwrStateResidencyTicks::UNDEFINED        50000                       # Cumulative time (in ticks) in various power states (Tick)
system.ruby.network.ext_links18.credit_in_links1.power_state.pwrStateResidencyTicks::UNDEFINED        50000                       # Cumulative time (in ticks) in various power states (Tick)
system.ruby.network.ext_links18.credit_in_links2.power_state.pwrStateResidencyTicks::UNDEFINED        50000                       # Cumulative time (in ticks) in various power states (Tick)
system.ruby.network.ext_links18.credit_in_links3.power_state.pwrStateResidencyTicks::UNDEFINED        50000                       # Cumulative time (in ticks) in various power states (Tick)
system.ruby.network.ext_links18.credit_in_links4.power_state.pwrStateResidencyTicks::UNDEFINED        50000                       # Cumulative time (in ticks) in various power states (Tick)
system.ruby.network.ext_links18.credit_out_links0.power_state.pwrStateResidencyTicks::UNDEFINED        50000                       # Cumulative time (in ticks) in various power states (Tick)
system.ruby.network.ext_links18.credit_out_links1.power_state.pwrStateResidencyTicks::UNDEFINED        50000                       # Cumulative time (in ticks) in various power states (Tick)
system.ruby.network.ext_links18.credit_out_links2.power_state.pwrStateResidencyTicks::UNDEFINED        50000                       # Cumulative time (in ticks) in various power states (Tick)
system.ruby.network.ext_links18.credit_out_links3.power_state.pwrStateResidencyTicks::UNDEFINED        50000                       # Cumulative time (in ticks) in various power states (Tick)
system.ruby.network.ext_links18.credit_out_links4.power_state.pwrStateResidencyTicks::UNDEFINED        50000                       # Cumulative time (in ticks) in various power states (Tick)
system.ruby.network.ext_links18.network_in_links0.power_state.pwrStateResidencyTicks::UNDEFINED        50000                       # Cumulative time (in ticks) in various power states (Tick)
system.ruby.network.ext_links18.network_in_links1.power_state.pwrStateResidencyTicks::UNDEFINED        50000                       # Cumulative time (in ticks) in various power states (Tick)
system.ruby.network.ext_links18.network_in_links2.power_state.pwrStateResidencyTicks::UNDEFINED        50000                       # Cumulative time (in ticks) in various power states (Tick)
system.ruby.network.ext_links18.network_in_links3.power_state.pwrStateResidencyTicks::UNDEFINED        50000                       # Cumulative time (in ticks) in various power states (Tick)
system.ruby.network.ext_links18.network_in_links4.power_state.pwrStateResidencyTicks::UNDEFINED        50000                       # Cumulative time (in ticks) in various power states (Tick)
system.ruby.network.ext_links18.network_out_links0.power_state.pwrStateResidencyTicks::UNDEFINED        50000                       # Cumulative time (in ticks) in various power states (Tick)
system.ruby.network.ext_links18.network_out_links1.power_state.pwrStateResidencyTicks::UNDEFINED        50000                       # Cumulative time (in ticks) in various power states (Tick)
system.ruby.network.ext_links18.network_out_links2.power_state.pwrStateResidencyTicks::UNDEFINED        50000                       # Cumulative time (in ticks) in various power states (Tick)
system.ruby.network.ext_links18.network_out_links3.power_state.pwrStateResidencyTicks::UNDEFINED        50000                       # Cumulative time (in ticks) in various power states (Tick)
system.ruby.network.ext_links18.network_out_links4.power_state.pwrStateResidencyTicks::UNDEFINED        50000                       # Cumulative time (in ticks) in various power states (Tick)
system.ruby.network.ext_links19.credit_in_links0.power_state.pwrStateResidencyTicks::UNDEFINED        50000                       # Cumulative time (in ticks) in various power states (Tick)
system.ruby.network.ext_links19.credit_in_links1.power_state.pwrStateResidencyTicks::UNDEFINED        50000                       # Cumulative time (in ticks) in various power states (Tick)
system.ruby.network.ext_links19.credit_in_links2.power_state.pwrStateResidencyTicks::UNDEFINED        50000                       # Cumulative time (in ticks) in various power states (Tick)
system.ruby.network.ext_links19.credit_in_links3.power_state.pwrStateResidencyTicks::UNDEFINED        50000                       # Cumulative time (in ticks) in various power states (Tick)
system.ruby.network.ext_links19.credit_in_links4.power_state.pwrStateResidencyTicks::UNDEFINED        50000                       # Cumulative time (in ticks) in various power states (Tick)
system.ruby.network.ext_links19.credit_out_links0.power_state.pwrStateResidencyTicks::UNDEFINED        50000                       # Cumulative time (in ticks) in various power states (Tick)
system.ruby.network.ext_links19.credit_out_links1.power_state.pwrStateResidencyTicks::UNDEFINED        50000                       # Cumulative time (in ticks) in various power states (Tick)
system.ruby.network.ext_links19.credit_out_links2.power_state.pwrStateResidencyTicks::UNDEFINED        50000                       # Cumulative time (in ticks) in various power states (Tick)
system.ruby.network.ext_links19.credit_out_links3.power_state.pwrStateResidencyTicks::UNDEFINED        50000                       # Cumulative time (in ticks) in various power states (Tick)
system.ruby.network.ext_links19.credit_out_links4.power_state.pwrStateResidencyTicks::UNDEFINED        50000                       # Cumulative time (in ticks) in various power states (Tick)
system.ruby.network.ext_links19.network_in_links0.power_state.pwrStateResidencyTicks::UNDEFINED        50000                       # Cumulative time (in ticks) in various power states (Tick)
system.ruby.network.ext_links19.network_in_links1.power_state.pwrStateResidencyTicks::UNDEFINED        50000                       # Cumulative time (in ticks) in various power states (Tick)
system.ruby.network.ext_links19.network_in_links2.power_state.pwrStateResidencyTicks::UNDEFINED        50000                       # Cumulative time (in ticks) in various power states (Tick)
system.ruby.network.ext_links19.network_in_links3.power_state.pwrStateResidencyTicks::UNDEFINED        50000                       # Cumulative time (in ticks) in various power states (Tick)
system.ruby.network.ext_links19.network_in_links4.power_state.pwrStateResidencyTicks::UNDEFINED        50000                       # Cumulative time (in ticks) in various power states (Tick)
system.ruby.network.ext_links19.network_out_links0.power_state.pwrStateResidencyTicks::UNDEFINED        50000                       # Cumulative time (in ticks) in various power states (Tick)
system.ruby.network.ext_links19.network_out_links1.power_state.pwrStateResidencyTicks::UNDEFINED        50000                       # Cumulative time (in ticks) in various power states (Tick)
system.ruby.network.ext_links19.network_out_links2.power_state.pwrStateResidencyTicks::UNDEFINED        50000                       # Cumulative time (in ticks) in various power states (Tick)
system.ruby.network.ext_links19.network_out_links3.power_state.pwrStateResidencyTicks::UNDEFINED        50000                       # Cumulative time (in ticks) in various power states (Tick)
system.ruby.network.ext_links19.network_out_links4.power_state.pwrStateResidencyTicks::UNDEFINED        50000                       # Cumulative time (in ticks) in various power states (Tick)
system.ruby.network.ext_links2.credit_in_links0.power_state.pwrStateResidencyTicks::UNDEFINED        50000                       # Cumulative time (in ticks) in various power states (Tick)
system.ruby.network.ext_links2.credit_in_links1.power_state.pwrStateResidencyTicks::UNDEFINED        50000                       # Cumulative time (in ticks) in various power states (Tick)
system.ruby.network.ext_links2.credit_in_links2.power_state.pwrStateResidencyTicks::UNDEFINED        50000                       # Cumulative time (in ticks) in various power states (Tick)
system.ruby.network.ext_links2.credit_in_links3.power_state.pwrStateResidencyTicks::UNDEFINED        50000                       # Cumulative time (in ticks) in various power states (Tick)
system.ruby.network.ext_links2.credit_in_links4.power_state.pwrStateResidencyTicks::UNDEFINED        50000                       # Cumulative time (in ticks) in various power states (Tick)
system.ruby.network.ext_links2.credit_out_links0.power_state.pwrStateResidencyTicks::UNDEFINED        50000                       # Cumulative time (in ticks) in various power states (Tick)
system.ruby.network.ext_links2.credit_out_links1.power_state.pwrStateResidencyTicks::UNDEFINED        50000                       # Cumulative time (in ticks) in various power states (Tick)
system.ruby.network.ext_links2.credit_out_links2.power_state.pwrStateResidencyTicks::UNDEFINED        50000                       # Cumulative time (in ticks) in various power states (Tick)
system.ruby.network.ext_links2.credit_out_links3.power_state.pwrStateResidencyTicks::UNDEFINED        50000                       # Cumulative time (in ticks) in various power states (Tick)
system.ruby.network.ext_links2.credit_out_links4.power_state.pwrStateResidencyTicks::UNDEFINED        50000                       # Cumulative time (in ticks) in various power states (Tick)
system.ruby.network.ext_links2.ext_node.dma_sequencer.dcache.m_demand_hits            0                       # Number of cache demand hits (Unspecified)
system.ruby.network.ext_links2.ext_node.dma_sequencer.dcache.m_demand_misses            0                       # Number of cache demand misses (Unspecified)
system.ruby.network.ext_links2.ext_node.dma_sequencer.dcache.m_demand_accesses            0                       # Number of cache demand accesses (Unspecified)
system.ruby.network.ext_links2.ext_node.dma_sequencer.power_state.pwrStateResidencyTicks::UNDEFINED        50000                       # Cumulative time (in ticks) in various power states (Tick)
system.ruby.network.ext_links2.ext_node.power_state.pwrStateResidencyTicks::UNDEFINED        50000                       # Cumulative time (in ticks) in various power states (Tick)
system.ruby.network.ext_links2.network_in_links0.power_state.pwrStateResidencyTicks::UNDEFINED        50000                       # Cumulative time (in ticks) in various power states (Tick)
system.ruby.network.ext_links2.network_in_links1.power_state.pwrStateResidencyTicks::UNDEFINED        50000                       # Cumulative time (in ticks) in various power states (Tick)
system.ruby.network.ext_links2.network_in_links2.power_state.pwrStateResidencyTicks::UNDEFINED        50000                       # Cumulative time (in ticks) in various power states (Tick)
[...]
system.ruby.network.data_traffic_distribution.n8.n27            0                       (Unspecified)
system.ruby.network.data_traffic_distribution.n8.n28            0                       (Unspecified)
system.ruby.network.data_traffic_distribution.n8.n29            0                       (Unspecified)
system.ruby.network.data_traffic_distribution.n8.n3            0                       (Unspecified)
system.ruby.network.data_traffic_distribution.n8.n4            0                       (Unspecified)
system.ruby.network.data_traffic_distribution.n8.n5            0                       (Unspecified)
system.ruby.network.data_traffic_distribution.n8.n6            0                       (Unspecified)
system.ruby.network.data_traffic_distribution.n8.n7            0                       (Unspecified)
system.ruby.network.data_traffic_distribution.n8.n8            0                       (Unspecified)
system.ruby.network.data_traffic_distribution.n8.n9            0                       (Unspecified)
system.ruby.network.data_traffic_distribution.n9.n0            0                       (Unspecified)
system.ruby.network.data_traffic_distribution.n9.n1            0                       (Unspecified)
system.ruby.network.data_traffic_distribution.n9.n10            0                       (Unspecified)
system.ruby.network.data_traffic_distribution.n9.n11            0                       (Unspecified)
system.ruby.network.data_traffic_distribution.n9.n12            0                       (Unspecified)
system.ruby.network.data_traffic_distribution.n9.n13            0                       (Unspecified)
system.ruby.network.data_traffic_distribution.n9.n14            0                       (Unspecified)
system.ruby.network.data_traffic_distribution.n9.n15            0                       (Unspecified)
system.ruby.network.data_traffic_distribution.n9.n16            0                       (Unspecified)
system.ruby.network.data_traffic_distribution.n9.n17            0                       (Unspecified)
system.ruby.network.data_traffic_distribution.n9.n18            0                       (Unspecified)
system.ruby.network.data_traffic_distribution.n9.n19            0                       (Unspecified)
system.ruby.network.data_traffic_distribution.n9.n2            0                       (Unspecified)
system.ruby.network.data_traffic_distribution.n9.n20            0                       (Unspecified)
system.ruby.network.data_traffic_distribution.n9.n21            0                       (Unspecified)
system.ruby.network.data_traffic_distribution.n9.n22            0                       (Unspecified)
system.ruby.network.data_traffic_distribution.n9.n23            0                       (Unspecified)
system.ruby.network.data_traffic_distribution.n9.n24            0                       (Unspecified)
system.ruby.network.data_traffic_distribution.n9.n25            0                       (Unspecified)
system.ruby.network.data_traffic_distribution.n9.n26            0                       (Unspecified)
system.ruby.network.data_traffic_distribution.n9.n27            0                       (Unspecified)
system.ruby.network.data_traffic_distribution.n9.n28            0                       (Unspecified)
system.ruby.network.data_traffic_distribution.n9.n29            0                       (Unspecified)
system.ruby.network.data_traffic_distribution.n9.n3            0                       (Unspecified)
system.ruby.network.data_traffic_distribution.n9.n4            0                       (Unspecified)
system.ruby.network.data_traffic_distribution.n9.n5            0                       (Unspecified)
system.ruby.network.data_traffic_distribution.n9.n6            0                       (Unspecified)
system.ruby.network.data_traffic_distribution.n9.n7            0                       (Unspecified)
system.ruby.network.data_traffic_distribution.n9.n8            0                       (Unspecified)
system.ruby.network.data_traffic_distribution.n9.n9            0                       (Unspecified)
system.ruby.network.ext_in_link_utilization            0                       (Unspecified)
system.ruby.network.ext_links01.network_in_links0.link_utilization          680                       # Number of cycles link is utilized (Unspecified)
system.ruby.network.ext_links01.network_out_links1.link_utilization          676                       # Number of cycles link is utilized (Unspecified)
system.ruby.network.ext_links03.network_in_links0.link_utilization          674                       # Number of cycles link is utilized (Unspecified)
system.ruby.network.ext_links03.network_out_links1.link_utilization          670                       # Number of cycles link is utilized (Unspecified)
system.ruby.network.ext_links05.network_in_links0.link_utilization          680                       # Number of cycles link is utilized (Unspecified)
system.ruby.network.ext_links05.network_out_links1.link_utilization          674                       # Number of cycles link is utilized (Unspecified)
system.ruby.network.ext_links07.network_in_links0.link_utilization          639                       # Number of cycles link is utilized (Unspecified)
system.ruby.network.ext_links07.network_out_links1.link_utilization          633                       # Number of cycles link is utilized (Unspecified)
system.ruby.network.ext_links09.network_in_links0.link_utilization          640                       # Number of cycles link is utilized (Unspecified)
system.ruby.network.ext_links09.network_out_links1.link_utilization          634                       # Number of cycles link is utilized (Unspecified)
system.ruby.network.ext_links11.network_in_links0.link_utilization          636                       # Number of cycles link is utilized (Unspecified)
system.ruby.network.ext_links11.network_out_links1.link_utilization          632                       # Number of cycles link is utilized (Unspecified)
system.ruby.network.ext_links13.network_in_links0.link_utilization          634                       # Number of cycles link is utilized (Unspecified)
system.ruby.network.ext_links13.network_out_links1.link_utilization          630                       # Number of cycles link is utilized (Unspecified)
system.ruby.network.ext_links15.network_in_links0.link_utilization          608                       # Number of cycles link is utilized (Unspecified)
system.ruby.network.ext_links15.network_out_links1.link_utilization          602                       # Number of cycles link is utilized (Unspecified)
system.ruby.network.ext_links16.network_in_links1.link_utilization         2544                       # Number of cycles link is utilized (Unspecified)
system.ruby.network.ext_links16.network_out_links0.link_utilization         2566                       # Number of cycles link is utilized (Unspecified)
system.ruby.network.ext_links22.network_in_links1.link_utilization         2608                       # Number of cycles link is utilized (Unspecified)
system.ruby.network.ext_links22.network_out_links0.link_utilization         2622                       # Number of cycles link is utilized (Unspecified)
system.ruby.network.ext_out_link_utilization            0                       (Unspecified)
system.ruby.network.flit_network_latency |      124122                       |      122835                       |           0                       |           0                       |           0                       (Unspecified)
system.ruby.network.flit_queueing_latency |       31726                       |        5323                       |           0                       |           0                       |           0                       (Unspecified)
system.ruby.network.flits_injected       |        5191     50.18%     50.18% |        5153     49.82%    100.00% |           0      0.00%    100.00% |           0      0.00%    100.00% |           0      0.00%    100.00% (Unspecified)
system.ruby.network.flits_injected::total        10344                       (Unspecified)
system.ruby.network.flits_received       |        5188     50.18%     50.18% |        5151     49.82%    100.00% |           0      0.00%    100.00% |           0      0.00%    100.00% |           0      0.00%    100.00% (Unspecified)
system.ruby.network.flits_received::total        10339                       (Unspecified)
system.ruby.network.int_link_utilization        48485                       (Unspecified)
system.ruby.network.int_links04.network_link1.link_utilization         2163                       # Number of cycles link is utilized (Unspecified)
system.ruby.network.int_links05.network_link1.link_utilization          903                       # Number of cycles link is utilized (Unspecified)
system.ruby.network.int_links08.network_link1.link_utilization          657                       # Number of cycles link is utilized (Unspecified)
system.ruby.network.int_links09.network_link1.link_utilization          568                       # Number of cycles link is utilized (Unspecified)
system.ruby.network.int_links12.network_link1.link_utilization         2160                       # Number of cycles link is utilized (Unspecified)
system.ruby.network.int_links13.network_link1.link_utilization          875                       # Number of cycles link is utilized (Unspecified)
system.ruby.network.int_links16.network_link1.link_utilization          172                       # Number of cycles link is utilized (Unspecified)
system.ruby.network.int_links17.network_link1.link_utilization          152                       # Number of cycles link is utilized (Unspecified)
system.ruby.network.int_links28.network_link0.link_utilization         1437                       # Number of cycles link is utilized (Unspecified)
system.ruby.network.int_links29.network_link0.link_utilization          673                       # Number of cycles link is utilized (Unspecified)
system.ruby.network.int_links32.network_link0.link_utilization         1200                       # Number of cycles link is utilized (Unspecified)
system.ruby.network.int_links33.network_link0.link_utilization          618                       # Number of cycles link is utilized (Unspecified)
system.ruby.network.int_links36.network_link0.link_utilization         1785                       # Number of cycles link is utilized (Unspecified)
system.ruby.network.int_links37.network_link0.link_utilization          840                       # Number of cycles link is utilized (Unspecified)
system.ruby.network.int_links40.network_link0.link_utilization          768                       # Number of cycles link is utilized (Unspecified)
system.ruby.network.int_links41.network_link0.link_utilization          387                       # Number of cycles link is utilized (Unspecified)
system.ruby.network.int_links49.network_link0.link_utilization          363                       # Number of cycles link is utilized (Unspecified)
system.ruby.network.int_links49.network_link1.link_utilization          389                       # Number of cycles link is utilized (Unspecified)
system.ruby.network.int_links50.network_link0.link_utilization          919                       # Number of cycles link is utilized (Unspecified)
system.ruby.network.int_links50.network_link1.link_utilization           21                       # Number of cycles link is utilized (Unspecified)
system.ruby.network.int_links51.network_link1.link_utilization          172                       # Number of cycles link is utilized (Unspecified)
system.ruby.network.int_links54.network_link0.link_utilization          149                       # Number of cycles link is utilized (Unspecified)
system.ruby.network.int_links54.network_link1.link_utilization          933                       # Number of cycles link is utilized (Unspecified)
system.ruby.network.int_links55.network_link0.link_utilization          215                       # Number of cycles link is utilized (Unspecified)
system.ruby.network.int_links55.network_link1.link_utilization          666                       # Number of cycles link is utilized (Unspecified)
system.ruby.network.int_links56.network_link1.link_utilization          613                       # Number of cycles link is utilized (Unspecified)
system.ruby.network.int_links59.network_link0.link_utilization          118                       # Number of cycles link is utilized (Unspecified)
system.ruby.network.int_links59.network_link1.link_utilization          536                       # Number of cycles link is utilized (Unspecified)
system.ruby.network.int_links60.network_link0.link_utilization          148                       # Number of cycles link is utilized (Unspecified)
system.ruby.network.int_links60.network_link1.link_utilization          517                       # Number of cycles link is utilized (Unspecified)
system.ruby.network.int_links61.network_link1.link_utilization          450                       # Number of cycles link is utilized (Unspecified)
system.ruby.network.int_links74.network_link0.link_utilization         1492                       # Number of cycles link is utilized (Unspecified)
system.ruby.network.int_links74.network_link1.link_utilization            8                       # Number of cycles link is utilized (Unspecified)
system.ruby.network.int_links75.network_link0.link_utilization          848                       # Number of cycles link is utilized (Unspecified)
system.ruby.network.int_links75.network_link1.link_utilization          297                       # Number of cycles link is utilized (Unspecified)
system.ruby.network.int_links76.network_link0.link_utilization          767                       # Number of cycles link is utilized (Unspecified)
system.ruby.network.int_links79.network_link0.link_utilization          233                       # Number of cycles link is utilized (Unspecified)
system.ruby.network.int_links79.network_link1.link_utilization          349                       # Number of cycles link is utilized (Unspecified)
system.ruby.network.int_links80.network_link0.link_utilization          207                       # Number of cycles link is utilized (Unspecified)
system.ruby.network.int_links80.network_link1.link_utilization          663                       # Number of cycles link is utilized (Unspecified)
system.ruby.network.int_links81.network_link0.link_utilization          258                       # Number of cycles link is utilized (Unspecified)
system.ruby.network.int_links84.network_link0.link_utilization          151                       # Number of cycles link is utilized (Unspecified)
system.ruby.network.int_links84.network_link1.link_utilization          267                       # Number of cycles link is utilized (Unspecified)
system.ruby.network.int_links85.network_link0.link_utilization          163                       # Number of cycles link is utilized (Unspecified)
system.ruby.network.int_links85.network_link1.link_utilization          312                       # Number of cycles link is utilized (Unspecified)
system.ruby.network.int_links86.network_link0.link_utilization          221                       # Number of cycles link is utilized (Unspecified)
system.ruby.network.network_sim_ticks           49997                       (Unspecified)
system.ruby.network.packet_network_latency |      124122                       |      122835                       |           0                       |           0                       |           0                       (Unspecified)
system.ruby.network.packet_queueing_latency |       31726                       |        5323                       |           0                       |           0                       |           0                       (Unspecified)
system.ruby.network.packets_injected     |        5191     50.18%     50.18% |        5153     49.82%    100.00% |           0      0.00%    100.00% |           0      0.00%    100.00% |           0      0.00%    100.00% (Unspecified)
system.ruby.network.packets_injected::total        10344                       (Unspecified)
system.ruby.network.packets_received     |        5188     50.18%     50.18% |        5151     49.82%    100.00% |           0      0.00%    100.00% |           0      0.00%    100.00% |           0      0.00%    100.00% (Unspecified)
system.ruby.network.packets_received::total        10339                       (Unspecified)
system.ruby.network.routers05.buffer_reads         5481                       (Unspecified)
system.ruby.network.routers05.buffer_writes         5481                       (Unspecified)
system.ruby.network.routers05.crossbar_activity         5481                       (Unspecified)
system.ruby.network.routers06.buffer_reads         4098                       (Unspecified)
system.ruby.network.routers06.buffer_writes         4098                       (Unspecified)
system.ruby.network.routers06.crossbar_activity         4098                       (Unspecified)
system.ruby.network.routers07.buffer_reads         1961                       (Unspecified)
system.ruby.network.routers07.buffer_writes         1961                       (Unspecified)
system.ruby.network.routers07.crossbar_activity         1961                       (Unspecified)
system.ruby.network.routers10.buffer_reads         3097                       (Unspecified)
system.ruby.network.routers10.buffer_writes         3097                       (Unspecified)
system.ruby.network.routers10.crossbar_activity         3097                       (Unspecified)
system.ruby.network.routers11.buffer_reads         3901                       (Unspecified)
system.ruby.network.routers11.buffer_writes         3901                       (Unspecified)
system.ruby.network.routers11.crossbar_activity         3901                       (Unspecified)
system.ruby.network.routers12.buffer_reads         2333                       (Unspecified)
system.ruby.network.routers12.buffer_writes         2333                       (Unspecified)
system.ruby.network.routers12.crossbar_activity         2333                       (Unspecified)
system.ruby.network.routers15.buffer_reads         6100                       (Unspecified)
system.ruby.network.routers15.buffer_writes         6100                       (Unspecified)
system.ruby.network.routers15.crossbar_activity         6100                       (Unspecified)
system.ruby.network.routers16.buffer_reads         4819                       (Unspecified)
system.ruby.network.routers16.buffer_writes         4819                       (Unspecified)
system.ruby.network.routers16.crossbar_activity         4817                       (Unspecified)
system.ruby.network.routers17.buffer_reads         2395                       (Unspecified)
system.ruby.network.routers17.buffer_writes         2395                       (Unspecified)
system.ruby.network.routers17.crossbar_activity         2395                       (Unspecified)
system.ruby.network.routers20.buffer_reads          940                       (Unspecified)
system.ruby.network.routers20.buffer_writes          940                       (Unspecified)
system.ruby.network.routers20.crossbar_activity          939                       (Unspecified)
system.ruby.network.routers21.buffer_reads         1811                       (Unspecified)
system.ruby.network.routers21.buffer_writes         1811                       (Unspecified)
system.ruby.network.routers21.crossbar_activity         1811                       (Unspecified)
system.ruby.network.routers22.buffer_reads         1210                       (Unspecified)
system.ruby.network.routers22.buffer_writes         1210                       (Unspecified)
system.ruby.network.routers22.crossbar_activity         1210                       (Unspecified)

---------- End Simulation Statistics   ----------
