
---------- Begin Simulation Statistics ----------
simSeconds                                   0.000025                       # Number of seconds simulated (Second)
simTicks                                        50000                       # Number of ticks simulated (Tick)
finalTick                                       50000                       # Number of ticks from beginning of simulation (restored from checkpoints and never reset) (Tick)
simFreq                                    2000000000                       # The number of ticks per simulated second ((Tick/Second))
hostSeconds                                     96.16                       # Real time elapsed on the host (Second)
hostTickRate                                      520                       # The number of ticks simulated per host second (ticks/s) ((Tick/Second))
hostMemory                                  142848792                       # Number of bytes of host memory used (Byte)
system.clk_domain.clock                             2                       # Clock period in ticks (Tick)
system.cpu0.power_state.pwrStateResidencyTicks::UNDEFINED        50000                       # Cumulative time (in ticks) in various power states (Tick)
system.cpu1.power_state.pwrStateResidencyTicks::UNDEFINED        50000                       # Cumulative time (in ticks) in various power states (Tick)
system.cpu2.power_state.pwrStateResidencyTicks::UNDEFINED        50000                       # Cumulative time (in ticks) in various power states (Tick)
system.cpu3.power_state.pwrStateResidencyTicks::UNDEFINED        50000                       # Cumulative time (in ticks) in various power states (Tick)
system.cpu4.power_state.pwrStateResidencyTicks::UNDEFINED        50000                       # Cumulative time (in ticks) in various power states (Tick)
system.cpu5.power_state.pwrStateResidencyTicks::UNDEFINED        50000                       # Cumulative time (in ticks) in various power states (Tick)
system.cpu6.power_state.pwrStateResidencyTicks::UNDEFINED        50000                       # Cumulative time (in ticks) in various power states (Tick)
system.cpu7.power_state.pwrStateResidencyTicks::UNDEFINED        50000                       # Cumulative time (in ticks) in various power states (Tick)
system.mem_ctrls0.bytesRead::ruby.dir_cntrl0      1536000                       # Number of bytes read from this memory (Byte)
system.mem_ctrls0.bytesRead::total            1536000                       # Number of bytes read from this memory (Byte)
system.mem_ctrls0.numReads::ruby.dir_cntrl0        12000                       # Number of read requests responded to by this memory (Count)
system.mem_ctrls0.numReads::total               12000                       # Number of read requests responded to by this memory (Count)
system.mem_ctrls0.bwRead::ruby.dir_cntrl0  61440000000                       # Total read bandwidth from this memory ((Byte/Second))
system.mem_ctrls0.bwRead::total           61440000000                       # Total read bandwidth from this memory ((Byte/Second))
system.mem_ctrls0.bwTotal::ruby.dir_cntrl0  61440000000                       # Total bandwidth to/from this memory ((Byte/Second))
system.mem_ctrls0.bwTotal::total          61440000000                       # Total bandwidth to/from this memory ((Byte/Second))
system.mem_ctrls0.power_state.pwrStateResidencyTicks::UNDEFINED        50000                       # Cumulative time (in ticks) in various power states (Tick)
system.mem_ctrls1.power_state.pwrStateResidencyTicks::UNDEFINED        50000                       # Cumulative time (in ticks) in various power states (Tick)
system.mem_ctrls10.bytesRead::ruby.dir_cntrl10      1536000                       # Number of bytes read from this memory (Byte)
system.mem_ctrls10.bytesRead::total           1536000                       # Number of bytes read from this memory (Byte)
system.mem_ctrls10.numReads::ruby.dir_cntrl10        12000                       # Number of read requests responded to by this memory (Count)
system.mem_ctrls10.numReads::total              12000                       # Number of read requests responded to by this memory (Count)
system.mem_ctrls10.bwRead::ruby.dir_cntrl10  61440000000                       # Total read bandwidth from this memory ((Byte/Second))
system.mem_ctrls10.bwRead::total          61440000000                       # Total read bandwidth from this memory ((Byte/Second))
system.mem_ctrls10.bwTotal::ruby.dir_cntrl10  61440000000                       # Total bandwidth to/from this memory ((Byte/Second))
system.mem_ctrls10.bwTotal::total         61440000000                       # Total bandwidth to/from this memory ((Byte/Second))
system.mem_ctrls10.power_state.pwrStateResidencyTicks::UNDEFINED        50000                       # Cumulative time (in ticks) in various power states (Tick)
system.mem_ctrls11.power_state.pwrStateResidencyTicks::UNDEFINED        50000                       # Cumulative time (in ticks) in various power states (Tick)
system.mem_ctrls12.power_state.pwrStateResidencyTicks::UNDEFINED        50000                       # Cumulative time (in ticks) in various power states (Tick)
system.mem_ctrls13.bytesRead::ruby.dir_cntrl13      1536000                       # Number of bytes read from this memory (Byte)
system.mem_ctrls13.bytesRead::total           1536000                       # Number of bytes read from this memory (Byte)
system.mem_ctrls13.numReads::ruby.dir_cntrl13        12000                       # Number of read requests responded to by this memory (Count)
system.mem_ctrls13.numReads::total              12000                       # Number of read requests responded to by this memory (Count)
system.mem_ctrls13.bwRead::ruby.dir_cntrl13  61440000000                       # Total read bandwidth from this memory ((Byte/Second))
system.mem_ctrls13.bwRead::total          61440000000                       # Total read bandwidth from this memory ((Byte/Second))
system.mem_ctrls13.bwTotal::ruby.dir_cntrl13  61440000000                       # Total bandwidth to/from this memory ((Byte/Second))
system.mem_ctrls13.bwTotal::total         61440000000                       # Total bandwidth to/from this memory ((Byte/Second))
system.mem_ctrls13.power_state.pwrStateResidencyTicks::UNDEFINED        50000                       # Cumulative time (in ticks) in various power states (Tick)
system.mem_ctrls14.bytesRead::ruby.dir_cntrl14      1536000                       # Number of bytes read from this memory (Byte)
system.mem_ctrls14.bytesRead::total           1536000                       # Number of bytes read from this memory (Byte)
system.mem_ctrls14.numReads::ruby.dir_cntrl14        12000                       # Number of read requests responded to by this memory (Count)
system.mem_ctrls14.numReads::total              12000                       # Number of read requests responded to by this memory (Count)
system.mem_ctrls14.bwRead::ruby.dir_cntrl14  61440000000                       # Total read bandwidth from this memory ((Byte/Second))
system.mem_ctrls14.bwRead::total          61440000000                       # Total read bandwidth from this memory ((Byte/Second))
system.mem_ctrls14.bwTotal::ruby.dir_cntrl14  61440000000                       # Total bandwidth to/from this memory ((Byte/Second))
system.mem_ctrls14.bwTotal::total         61440000000                       # Total bandwidth to/from this memory ((Byte/Second))
system.mem_ctrls14.power_state.pwrStateResidencyTicks::UNDEFINED        50000                       # Cumulative time (in ticks) in various power states (Tick)
system.mem_ctrls15.bytesRead::ruby.dir_cntrl15      1536000                       # Number of bytes read from this memory (Byte)
system.mem_ctrls15.bytesRead::total           1536000                       # Number of bytes read from this memory (Byte)
system.mem_ctrls15.numReads::ruby.dir_cntrl15        12000                       # Number of read requests responded to by this memory (Count)
system.mem_ctrls15.numReads::total              12000                       # Number of read requests responded to by this memory (Count)
system.mem_ctrls15.bwRead::ruby.dir_cntrl15  61440000000                       # Total read bandwidth from this memory ((Byte/Second))
system.mem_ctrls15.bwRead::total          61440000000                       # Total read bandwidth from this memory ((Byte/Second))
system.mem_ctrls15.bwTotal::ruby.dir_cntrl15  61440000000                       # Total bandwidth to/from this memory ((Byte/Second))
system.mem_ctrls15.bwTotal::total         61440000000                       # Total bandwidth to/from this memory ((Byte/Second))
system.mem_ctrls15.power_state.pwrStateResidencyTicks::UNDEFINED        50000                       # Cumulative time (in ticks) in various power states (Tick)
system.mem_ctrls2.power_state.pwrStateResidencyTicks::UNDEFINED        50000                       # Cumulative time (in ticks) in various power states (Tick)
system.mem_ctrls3.bytesRead::ruby.dir_cntrl3      1536000                       # Number of bytes read from this memory (Byte)
system.mem_ctrls3.bytesRead::total            1536000                       # Number of bytes read from this memory (Byte)
system.mem_ctrls3.numReads::ruby.dir_cntrl3        12000                       # Number of read requests responded to by this memory (Count)
system.mem_ctrls3.numReads::total               12000                       # Number of read requests responded to by this memory (Count)
system.mem_ctrls3.bwRead::ruby.dir_cntrl3  61440000000                       # Total read bandwidth from this memory ((Byte/Second))
system.mem_ctrls3.bwRead::total           61440000000                       # Total read bandwidth from this memory ((Byte/Second))
system.mem_ctrls3.bwTotal::ruby.dir_cntrl3  61440000000                       # Total bandwidth to/from this memory ((Byte/Second))
system.mem_ctrls3.bwTotal::total          61440000000                       # Total bandwidth to/from this memory ((Byte/Second))
system.mem_ctrls3.power_state.pwrStateResidencyTicks::UNDEFINED        50000                       # Cumulative time (in ticks) in various power states (Tick)
system.mem_ctrls4.power_state.pwrStateResidencyTicks::UNDEFINED        50000                       # Cumulative time (in ticks) in various power states (Tick)
system.mem_ctrls5.power_state.pwrStateResidencyTicks::UNDEFINED        50000                       # Cumulative time (in ticks) in various power states (Tick)
system.mem_ctrls6.bytesRead::ruby.dir_cntrl6      1536000                       # Number of bytes read from this memory (Byte)
system.mem_ctrls6.bytesRead::total            1536000                       # Number of bytes read from this memory (Byte)
system.mem_ctrls6.numReads::ruby.dir_cntrl6        12000                       # Number of read requests responded to by this memory (Count)
system.mem_ctrls6.numReads::total               12000                       # Number of read requests responded to by this memory (Count)
system.mem_ctrls6.bwRead::ruby.dir_cntrl6  61440000000                       # Total read bandwidth from this memory ((Byte/Second))
system.mem_ctrls6.bwRead::total           61440000000                       # Total read bandwidth from this memory ((Byte/Second))
system.mem_ctrls6.bwTotal::ruby.dir_cntrl6  61440000000                       # Total bandwidth to/from this memory ((Byte/Second))
system.mem_ctrls6.bwTotal::total          61440000000                       # Total bandwidth to/from this memory ((Byte/Second))
system.mem_ctrls6.power_state.pwrStateResidencyTicks::UNDEFINED        50000                       # Cumulative time (in ticks) in various power states (Tick)
system.mem_ctrls7.power_state.pwrStateResidencyTicks::UNDEFINED        50000                       # Cumulative time (in ticks) in various power states (Tick)
system.mem_ctrls8.power_state.pwrStateResidencyTicks::UNDEFINED        50000                       # Cumulative time (in ticks) in various power states (Tick)
system.mem_ctrls9.bytesRead::ruby.dir_cntrl9      1536000                       # Number of bytes read from this memory (Byte)
system.mem_ctrls9.bytesRead::total            1536000                       # Number of bytes read from this memory (Byte)
system.mem_ctrls9.numReads::ruby.dir_cntrl9        12000                       # Number of read requests responded to by this memory (Count)
system.mem_ctrls9.numReads::total               12000                       # Number of read requests responded to by this memory (Count)
system.mem_ctrls9.bwRead::ruby.dir_cntrl9  61440000000                       # Total read bandwidth from this memory ((Byte/Second))
system.mem_ctrls9.bwRead::total           61440000000                       # Total read bandwidth from this memory ((Byte/Second))
system.mem_ctrls9.bwTotal::ruby.dir_cntrl9  61440000000                       # Total bandwidth to/from this memory ((Byte/Second))
system.mem_ctrls9.bwTotal::total          61440000000                       # Total bandwidth to/from this memory ((Byte/Second))
system.mem_ctrls9.power_state.pwrStateResidencyTicks::UNDEFINED        50000                       # Cumulative time (in ticks) in various power states (Tick)
system.ruby.Directory_Controller.DMA_READ |       12000     12.50%     12.50% |           0      0.00%     12.50% |           0      0.00%     12.50% |       12000     12.50%     25.00% |           0      0.00%     25.00% |           0      0.00%     25.00% |       12000     12.50%     37.50% |           0      0.00%     37.50% |           0      0.00%     37.50% |       12000     12.50%     50.00% |       12000     12.50%     62.50% |           0      0.00%     62.50% |           0      0.00%     62.50% |       12000     12.50%     75.00% |       12000     12.50%     87.50% |       12000     12.50%    100.00% (Unspecified)
system.ruby.Directory_Controller.DMA_READ::total        96000                       (Unspecified)
system.ruby.Directory_Controller.Memory_Data |       12000     12.50%     12.50% |           0      0.00%     12.50% |           0      0.00%     12.50% |       12000     12.50%     25.00% |           0      0.00%     25.00% |           0      0.00%     25.00% |       12000     12.50%     37.50% |           0      0.00%     37.50% |           0      0.00%     37.50% |       12000     12.50%     50.00% |       12000     12.50%     62.50% |           0      0.00%     62.50% |           0      0.00%     62.50% |       12000     12.50%     75.00% |       12000     12.50%     87.50% |       12000     12.50%    100.00% (Unspecified)
system.ruby.Directory_Controller.Memory_Data::total        96000                       (Unspecified)
system.ruby.Directory_Controller.I.DMA_READ |       12000     12.50%     12.50% |           0      0.00%     12.50% |           0      0.00%     12.50% |       12000     12.50%     25.00% |           0      0.00%     25.00% |           0      0.00%     25.00% |       12000     12.50%     37.50% |           0      0.00%     37.50% |           0      0.00%     37.50% |       12000     12.50%     50.00% |       12000     12.50%     62.50% |           0      0.00%     62.50% |           0      0.00%     62.50% |       12000     12.50%     75.00% |       12000     12.50%     87.50% |       12000     12.50%    100.00% (Unspecified)
system.ruby.Directory_Controller.I.DMA_READ::total        96000                       (Unspecified)
system.ruby.Directory_Controller.ID.Memory_Data |       12000     12.50%     12.50% |           0      0.00%     12.50% |           0      0.00%     12.50% |       12000     12.50%     25.00% |           0      0.00%     25.00% |           0      0.00%     25.00% |       12000     12.50%     37.50% |           0      0.00%     37.50% |           0      0.00%     37.50% |       12000     12.50%     50.00% |       12000     12.50%     62.50% |           0      0.00%     62.50% |           0      0.00%     62.50% |       12000     12.50%     75.00% |       12000     12.50%     87.50% |       12000     12.50%    100.00% (Unspecified)
system.ruby.Directory_Controller.ID.Memory_Data::total        96000                       (Unspecified)
system.ruby.DMA_Controller.ReadRequest   |           0      0.00%      0.00% |       12000     12.50%     12.50% |           0      0.00%     12.50% |       12000     12.50%     25.00% |           0      0.00%     25.00% |       12000     12.50%     37.50% |           0      0.00%     37.50% |       12000     12.50%     50.00% |           0      0.00%     50.00% |       12000     12.50%     62.50% |           0      0.00%     62.50% |       12000     12.50%     75.00% |           0      0.00%     75.00% |       12000     12.50%     87.50% |           0      0.00%     87.50% |       12000     12.50%    100.00% (Unspecified)
system.ruby.DMA_Controller.ReadRequest::total        96000                       (Unspecified)
system.ruby.DMA_Controller.Data          |           0      0.00%      0.00% |       12000     12.50%     12.50% |           0      0.00%     12.50% |       12000     12.50%     25.00% |           0      0.00%     25.00% |       12000     12.50%     37.50% |           0      0.00%     37.50% |       12000     12.50%     50.00% |           0      0.00%     50.00% |       12000     12.50%     62.50% |           0      0.00%     62.50% |       12000     12.50%     75.00% |           0      0.00%     75.00% |       12000     12.50%     87.50% |           0      0.00%     87.50% |       12000     12.50%    100.00% (Unspecified)
system.ruby.DMA_Controller.Data::total          96000                       (Unspecified)
system.ruby.DMA_Controller.READY.ReadRequest |           0      0.00%      0.00% |       12000     12.50%     12.50% |           0      0.00%     12.50% |       12000     12.50%     25.00% |           0      0.00%     25.00% |       12000     12.50%     37.50% |           0      0.00%     37.50% |       12000     12.50%     50.00% |           0      0.00%     50.00% |       12000     12.50%     62.50% |           0      0.00%     62.50% |       12000     12.50%     75.00% |           0      0.00%     75.00% |       12000     12.50%     87.50% |           0      0.00%     87.50% |       12000     12.50%    100.00% (Unspecified)
system.ruby.DMA_Controller.READY.ReadRequest::total        96000                       (Unspecified)
system.ruby.DMA_Controller.BUSY_RD.Data  |           0      0.00%      0.00% |       12000     12.50%     12.50% |           0      0.00%     12.50% |       12000     12.50%     25.00% |           0      0.00%     25.00% |       12000     12.50%     37.50% |           0      0.00%     37.50% |       12000     12.50%     50.00% |           0      0.00%     50.00% |       12000     12.50%     62.50% |           0      0.00%     62.50% |       12000     12.50%     75.00% |           0      0.00%     75.00% |       12000     12.50%     87.50% |           0      0.00%     87.50% |       12000     12.50%    100.00% (Unspecified)
system.ruby.DMA_Controller.BUSY_RD.Data::total        96000                       (Unspecified)
system.ruby.clk_domain.clock                        1                       # Clock period in ticks (Tick)
system.ruby.dir_cntrl0.dmaRequestToDir.m_msg_count        12000                       # Number of messages passed the buffer (Count)
system.ruby.dir_cntrl0.dmaRequestToDir.m_buf_msgs     0.239995                       # Average number of messages in buffer ((Count/Tick))
system.ruby.dir_cntrl0.dmaResponseFromDir.m_msg_count        12000                       # Number of messages passed the buffer (Count)
system.ruby.dir_cntrl0.dmaResponseFromDir.m_buf_msgs     0.270235                       # Average number of messages in buffer ((Count/Tick))
system.ruby.dir_cntrl0.dmaResponseFromDir.m_stall_time         1512                       # Total number of ticks messages were stalled in this buffer (Tick)
system.ruby.dir_cntrl0.dmaResponseFromDir.m_avg_stall_time     0.126000                       # Average stall ticks per message ((Tick/Count))
system.ruby.dir_cntrl0.power_state.pwrStateResidencyTicks::UNDEFINED        50000                       # Cumulative time (in ticks) in various power states (Tick)
system.ruby.dir_cntrl0.requestToMemory.m_msg_count        12000                       # Number of messages passed the buffer (Count)
system.ruby.dir_cntrl0.requestToMemory.m_buf_msgs    84.393972                       # Average number of messages in buffer ((Count/Tick))
system.ruby.dir_cntrl0.requestToMemory.m_stall_time      4207783                       # Total number of ticks messages were stalled in this buffer (Tick)
system.ruby.dir_cntrl0.requestToMemory.m_avg_stall_time   350.648583                       # Average stall ticks per message ((Tick/Count))
system.ruby.dir_cntrl0.responseFromMemory.m_msg_count        12000                       # Number of messages passed the buffer (Count)
system.ruby.dir_cntrl0.responseFromMemory.m_buf_msgs     0.239995                       # Average number of messages in buffer ((Count/Tick))
system.ruby.dir_cntrl1.power_state.pwrStateResidencyTicks::UNDEFINED        50000                       # Cumulative time (in ticks) in various power states (Tick)
system.ruby.dir_cntrl10.dmaRequestToDir.m_msg_count        12000                       # Number of messages passed the buffer (Count)
system.ruby.dir_cntrl10.dmaRequestToDir.m_buf_msgs     0.239995                       # Average number of messages in buffer ((Count/Tick))
system.ruby.dir_cntrl10.dmaResponseFromDir.m_msg_count        12000                       # Number of messages passed the buffer (Count)
system.ruby.dir_cntrl10.dmaResponseFromDir.m_buf_msgs     0.270155                       # Average number of messages in buffer ((Count/Tick))
system.ruby.dir_cntrl10.dmaResponseFromDir.m_stall_time         1508                       # Total number of ticks messages were stalled in this buffer (Tick)
system.ruby.dir_cntrl10.dmaResponseFromDir.m_avg_stall_time     0.125667                       # Average stall ticks per message ((Tick/Count))
system.ruby.dir_cntrl10.power_state.pwrStateResidencyTicks::UNDEFINED        50000                       # Cumulative time (in ticks) in various power states (Tick)
system.ruby.dir_cntrl10.requestToMemory.m_msg_count        12000                       # Number of messages passed the buffer (Count)
system.ruby.dir_cntrl10.requestToMemory.m_buf_msgs    85.366973                       # Average number of messages in buffer ((Count/Tick))
system.ruby.dir_cntrl10.requestToMemory.m_stall_time      4256434                       # Total number of ticks messages were stalled in this buffer (Tick)
system.ruby.dir_cntrl10.requestToMemory.m_avg_stall_time   354.702833                       # Average stall ticks per message ((Tick/Count))
system.ruby.dir_cntrl10.responseFromMemory.m_msg_count        12000                       # Number of messages passed the buffer (Count)
system.ruby.dir_cntrl10.responseFromMemory.m_buf_msgs     0.239995                       # Average number of messages in buffer ((Count/Tick))
system.ruby.dir_cntrl11.power_state.pwrStateResidencyTicks::UNDEFINED        50000                       # Cumulative time (in ticks) in various power states (Tick)
system.ruby.dir_cntrl12.power_state.pwrStateResidencyTicks::UNDEFINED        50000                       # Cumulative time (in ticks) in various power states (Tick)
system.ruby.dir_cntrl13.dmaRequestToDir.m_msg_count        12000                       # Number of messages passed the buffer (Count)
system.ruby.dir_cntrl13.dmaRequestToDir.m_buf_msgs     0.239995                       # Average number of messages in buffer ((Count/Tick))
system.ruby.dir_cntrl13.dmaResponseFromDir.m_msg_count        12000                       # Number of messages passed the buffer (Count)
system.ruby.dir_cntrl13.dmaResponseFromDir.m_buf_msgs     0.270055                       # Average number of messages in buffer ((Count/Tick))
system.ruby.dir_cntrl13.dmaResponseFromDir.m_stall_time         1503                       # Total number of ticks messages were stalled in this buffer (Tick)
system.ruby.dir_cntrl13.dmaResponseFromDir.m_avg_stall_time     0.125250                       # Average stall ticks per message ((Tick/Count))
system.ruby.dir_cntrl13.power_state.pwrStateResidencyTicks::UNDEFINED        50000                       # Cumulative time (in ticks) in various power states (Tick)
system.ruby.dir_cntrl13.requestToMemory.m_msg_count        12000                       # Number of messages passed the buffer (Count)
system.ruby.dir_cntrl13.requestToMemory.m_buf_msgs    85.378452                       # Average number of messages in buffer ((Count/Tick))
system.ruby.dir_cntrl13.requestToMemory.m_stall_time      4257008                       # Total number of ticks messages were stalled in this buffer (Tick)
system.ruby.dir_cntrl13.requestToMemory.m_avg_stall_time   354.750667                       # Average stall ticks per message ((Tick/Count))
system.ruby.dir_cntrl13.responseFromMemory.m_msg_count        12000                       # Number of messages passed the buffer (Count)
system.ruby.dir_cntrl13.responseFromMemory.m_buf_msgs     0.239995                       # Average number of messages in buffer ((Count/Tick))
system.ruby.dir_cntrl14.dmaRequestToDir.m_msg_count        12000                       # Number of messages passed the buffer (Count)
system.ruby.dir_cntrl14.dmaRequestToDir.m_buf_msgs     0.239995                       # Average number of messages in buffer ((Count/Tick))
system.ruby.dir_cntrl14.dmaResponseFromDir.m_msg_count        12000                       # Number of messages passed the buffer (Count)
system.ruby.dir_cntrl14.dmaResponseFromDir.m_buf_msgs     0.270515                       # Average number of messages in buffer ((Count/Tick))
system.ruby.dir_cntrl14.dmaResponseFromDir.m_stall_time         1526                       # Total number of ticks messages were stalled in this buffer (Tick)
system.ruby.dir_cntrl14.dmaResponseFromDir.m_avg_stall_time     0.127167                       # Average stall ticks per message ((Tick/Count))
system.ruby.dir_cntrl14.power_state.pwrStateResidencyTicks::UNDEFINED        50000                       # Cumulative time (in ticks) in various power states (Tick)
system.ruby.dir_cntrl14.requestToMemory.m_msg_count        12000                       # Number of messages passed the buffer (Count)
system.ruby.dir_cntrl14.requestToMemory.m_buf_msgs    84.414212                       # Average number of messages in buffer ((Count/Tick))
system.ruby.dir_cntrl14.requestToMemory.m_stall_time      4208795                       # Total number of ticks messages were stalled in this buffer (Tick)
system.ruby.dir_cntrl14.requestToMemory.m_avg_stall_time   350.732917                       # Average stall ticks per message ((Tick/Count))
system.ruby.dir_cntrl14.responseFromMemory.m_msg_count        12000                       # Number of messages passed the buffer (Count)
system.ruby.dir_cntrl14.responseFromMemory.m_buf_msgs     0.239995                       # Average number of messages in buffer ((Count/Tick))
system.ruby.dir_cntrl15.dmaRequestToDir.m_msg_count        12000                       # Number of messages passed the buffer (Count)
system.ruby.dir_cntrl15.dmaRequestToDir.m_buf_msgs     0.239995                       # Average number of messages in buffer ((Count/Tick))
system.ruby.dir_cntrl15.dmaResponseFromDir.m_msg_count        12000                       # Number of messages passed the buffer (Count)
system.ruby.dir_cntrl15.dmaResponseFromDir.m_buf_msgs     0.267955                       # Average number of messages in buffer ((Count/Tick))
system.ruby.dir_cntrl15.dmaResponseFromDir.m_stall_time         1398                       # Total number of ticks messages were stalled in this buffer (Tick)
system.ruby.dir_cntrl15.dmaResponseFromDir.m_avg_stall_time     0.116500                       # Average stall ticks per message ((Tick/Count))
system.ruby.dir_cntrl15.power_state.pwrStateResidencyTicks::UNDEFINED        50000                       # Cumulative time (in ticks) in various power states (Tick)
system.ruby.dir_cntrl15.requestToMemory.m_msg_count        12000                       # Number of messages passed the buffer (Count)
system.ruby.dir_cntrl15.requestToMemory.m_buf_msgs    84.446351                       # Average number of messages in buffer ((Count/Tick))
system.ruby.dir_cntrl15.requestToMemory.m_stall_time      4210402                       # Total number of ticks messages were stalled in this buffer (Tick)
system.ruby.dir_cntrl15.requestToMemory.m_avg_stall_time   350.866833                       # Average stall ticks per message ((Tick/Count))
system.ruby.dir_cntrl15.responseFromMemory.m_msg_count        12000                       # Number of messages passed the buffer (Count)
system.ruby.dir_cntrl15.responseFromMemory.m_buf_msgs     0.239995                       # Average number of messages in buffer ((Count/Tick))
system.ruby.dir_cntrl2.power_state.pwrStateResidencyTicks::UNDEFINED        50000                       # Cumulative time (in ticks) in various power states (Tick)
system.ruby.dir_cntrl3.dmaRequestToDir.m_msg_count        12000                       # Number of messages passed the buffer (Count)
system.ruby.dir_cntrl3.dmaRequestToDir.m_buf_msgs     0.239995                       # Average number of messages in buffer ((Count/Tick))
system.ruby.dir_cntrl3.dmaResponseFromDir.m_msg_count        12000                       # Number of messages passed the buffer (Count)
system.ruby.dir_cntrl3.dmaResponseFromDir.m_buf_msgs     0.269975                       # Average number of messages in buffer ((Count/Tick))
system.ruby.dir_cntrl3.dmaResponseFromDir.m_stall_time         1499                       # Total number of ticks messages were stalled in this buffer (Tick)
system.ruby.dir_cntrl3.dmaResponseFromDir.m_avg_stall_time     0.124917                       # Average stall ticks per message ((Tick/Count))
system.ruby.dir_cntrl3.power_state.pwrStateResidencyTicks::UNDEFINED        50000                       # Cumulative time (in ticks) in various power states (Tick)
system.ruby.dir_cntrl3.requestToMemory.m_msg_count        12000                       # Number of messages passed the buffer (Count)
system.ruby.dir_cntrl3.requestToMemory.m_buf_msgs    84.445991                       # Average number of messages in buffer ((Count/Tick))
system.ruby.dir_cntrl3.requestToMemory.m_stall_time      4210384                       # Total number of ticks messages were stalled in this buffer (Tick)
system.ruby.dir_cntrl3.requestToMemory.m_avg_stall_time   350.865333                       # Average stall ticks per message ((Tick/Count))
system.ruby.dir_cntrl3.responseFromMemory.m_msg_count        12000                       # Number of messages passed the buffer (Count)
system.ruby.dir_cntrl3.responseFromMemory.m_buf_msgs     0.239995                       # Average number of messages in buffer ((Count/Tick))
system.ruby.dir_cntrl4.power_state.pwrStateResidencyTicks::UNDEFINED        50000                       # Cumulative time (in ticks) in various power states (Tick)
system.ruby.dir_cntrl5.power_state.pwrStateResidencyTicks::UNDEFINED        50000                       # Cumulative time (in ticks) in various power states (Tick)
system.ruby.dir_cntrl6.dmaRequestToDir.m_msg_count        12000                       # Number of messages passed the buffer (Count)
system.ruby.dir_cntrl6.dmaRequestToDir.m_buf_msgs     0.239995                       # Average number of messages in buffer ((Count/Tick))
system.ruby.dir_cntrl6.dmaResponseFromDir.m_msg_count        12000                       # Number of messages passed the buffer (Count)
system.ruby.dir_cntrl6.dmaResponseFromDir.m_buf_msgs     0.271455                       # Average number of messages in buffer ((Count/Tick))
system.ruby.dir_cntrl6.dmaResponseFromDir.m_stall_time         1573                       # Total number of ticks messages were stalled in this buffer (Tick)
system.ruby.dir_cntrl6.dmaResponseFromDir.m_avg_stall_time     0.131083                       # Average stall ticks per message ((Tick/Count))
system.ruby.dir_cntrl6.power_state.pwrStateResidencyTicks::UNDEFINED        50000                       # Cumulative time (in ticks) in various power states (Tick)
system.ruby.dir_cntrl6.requestToMemory.m_msg_count        12000                       # Number of messages passed the buffer (Count)
system.ruby.dir_cntrl6.requestToMemory.m_buf_msgs    85.114858                       # Average number of messages in buffer ((Count/Tick))
system.ruby.dir_cntrl6.requestToMemory.m_stall_time      4243828                       # Total number of ticks messages were stalled in this buffer (Tick)
system.ruby.dir_cntrl6.requestToMemory.m_avg_stall_time   353.652333                       # Average stall ticks per message ((Tick/Count))
system.ruby.dir_cntrl6.responseFromMemory.m_msg_count        12000                       # Number of messages passed the buffer (Count)
system.ruby.dir_cntrl6.responseFromMemory.m_buf_msgs     0.239995                       # Average number of messages in buffer ((Count/Tick))
system.ruby.dir_cntrl7.power_state.pwrStateResidencyTicks::UNDEFINED        50000                       # Cumulative time (in ticks) in various power states (Tick)
system.ruby.dir_cntrl8.power_state.pwrStateResidencyTicks::UNDEFINED        50000                       # Cumulative time (in ticks) in various power states (Tick)
system.ruby.dir_cntrl9.dmaRequestToDir.m_msg_count        12000                       # Number of messages passed the buffer (Count)
system.ruby.dir_cntrl9.dmaRequestToDir.m_buf_msgs     0.239995                       # Average number of messages in buffer ((Count/Tick))
system.ruby.dir_cntrl9.dmaResponseFromDir.m_msg_count        12000                       # Number of messages passed the buffer (Count)
system.ruby.dir_cntrl9.dmaResponseFromDir.m_buf_msgs     0.269755                       # Average number of messages in buffer ((Count/Tick))
system.ruby.dir_cntrl9.dmaResponseFromDir.m_stall_time         1488                       # Total number of ticks messages were stalled in this buffer (Tick)
system.ruby.dir_cntrl9.dmaResponseFromDir.m_avg_stall_time     0.124000                       # Average stall ticks per message ((Tick/Count))
system.ruby.dir_cntrl9.power_state.pwrStateResidencyTicks::UNDEFINED        50000                       # Cumulative time (in ticks) in various power states (Tick)
system.ruby.dir_cntrl9.requestToMemory.m_msg_count        12000                       # Number of messages passed the buffer (Count)
system.ruby.dir_cntrl9.requestToMemory.m_buf_msgs    85.151517                       # Average number of messages in buffer ((Count/Tick))
system.ruby.dir_cntrl9.requestToMemory.m_stall_time      4245661                       # Total number of ticks messages were stalled in this buffer (Tick)
system.ruby.dir_cntrl9.requestToMemory.m_avg_stall_time   353.805083                       # Average stall ticks per message ((Tick/Count))
system.ruby.dir_cntrl9.responseFromMemory.m_msg_count        12000                       # Number of messages passed the buffer (Count)
system.ruby.dir_cntrl9.responseFromMemory.m_buf_msgs     0.239995                       # Average number of messages in buffer ((Count/Tick))
system.ruby.network.ext_links0.credit_in_links0.power_state.pwrStateResidencyTicks::UNDEFINED        50000                       # Cumulative time (in ticks) in various power states (Tick)
system.ruby.network.ext_links0.credit_in_links1.power_state.pwrStateResidencyTicks::UNDEFINED        50000                       # Cumulative time (in ticks) in various power states (Tick)
system.ruby.network.ext_links0.credit_in_links2.power_state.pwrStateResidencyTicks::UNDEFINED        50000                       # Cumulative time (in ticks) in various power states (Tick)
system.ruby.network.ext_links0.credit_in_links3.power_state.pwrStateResidencyTicks::UNDEFINED        50000                       # Cumulative time (in ticks) in various power states (Tick)
system.ruby.network.ext_links0.credit_in_links4.power_state.pwrStateResidencyTicks::UNDEFINED        50000                       # Cumulative time (in ticks) in various power states (Tick)
system.ruby.network.ext_links0.credit_out_links0.power_state.pwrStateResidencyTicks::UNDEFINED        50000                       # Cumulative time (in ticks) in various power states (Tick)
system.ruby.network.ext_links0.credit_out_links1.power_state.pwrStateResidencyTicks::UNDEFINED        50000                       # Cumulative time (in ticks) in various power states (Tick)
system.ruby.network.ext_links0.credit_out_links2.power_state.pwrStateResidencyTicks::UNDEFINED        50000                       # Cumulative time (in ticks) in various power states (Tick)
system.ruby.network.ext_links0.credit_out_links3.power_state.pwrStateResidencyTicks::UNDEFINED        50000                       # Cumulative time (in ticks) in various power states (Tick)
system.ruby.network.ext_links0.credit_out_links4.power_state.pwrStateResidencyTicks::UNDEFINED        50000                       # Cumulative time (in ticks) in various power states (Tick)
system.ruby.network.ext_links0.ext_node.dma_sequencer.dcache.m_demand_hits            0                       # Number of cache demand hits (Unspecified)
system.ruby.network.ext_links0.ext_node.dma_sequencer.dcache.m_demand_misses            0                       # Number of cache demand misses (Unspecified)
system.ruby.network.ext_links0.ext_node.dma_sequencer.dcache.m_demand_accesses            0                       # Number of cache demand accesses (Unspecified)
system.ruby.network.ext_links0.ext_node.dma_sequencer.power_state.pwrStateResidencyTicks::UNDEFINED        50000                       # Cumulative time (in ticks) in various power states (Tick)
system.ruby.network.ext_links0.ext_node.power_state.pwrStateResidencyTicks::UNDEFINED        50000                       # Cumulative time (in ticks) in various power states (Tick)
system.ruby.network.ext_links0.network_in_links0.power_state.pwrStateResidencyTicks::UNDEFINED        50000                       # Cumulative time (in ticks) in various power states (Tick)
system.ruby.network.ext_links0.network_in_links1.power_state.pwrStateResidencyTicks::UNDEFINED        50000                       # Cumulative time (in ticks) in various power states (Tick)
system.ruby.network.ext_links0.network_in_links2.power_state.pwrStateResidencyTicks::UNDEFINED        50000                       # Cumulative time (in ticks) in various power states (Tick)
system.ruby.network.ext_links0.network_in_links3.power_state.pwrStateResidencyTicks::UNDEFINED        50000                       # Cumulative time (in ticks) in various power states (Tick)
system.ruby.network.ext_links0.network_in_links4.power_state.pwrStateResidencyTicks::UNDEFINED        50000                       # Cumulative time (in ticks) in various power states (Tick)
system.ruby.network.ext_links0.network_out_links0.power_state.pwrStateResidencyTicks::UNDEFINED        50000                       # Cumulative time (in ticks) in various power states (Tick)
system.ruby.network.ext_links0.network_out_links1.power_state.pwrStateResidencyTicks::UNDEFINED        50000                       # Cumulative time (in ticks) in various power states (Tick)
system.ruby.network.ext_links0.network_out_links2.power_state.pwrStateResidencyTicks::UNDEFINED        50000                       # Cumulative time (in ticks) in various power states (Tick)
system.ruby.network.ext_links0.network_out_links3.power_state.pwrStateResidencyTicks::UNDEFINED        50000                       # Cumulative time (in ticks) in various power states (Tick)
system.ruby.network.ext_links0.network_out_links4.power_state.pwrStateResidencyTicks::UNDEFINED        50000                       # Cumulative time (in ticks) in various power states (Tick)
system.ruby.network.ext_links1.credit_in_links0.power_state.pwrStateResidencyTicks::UNDEFINED        50000                       # Cumulative time (in ticks) in various power states (Tick)
system.ruby.network.ext_links1.credit_in_links1.power_state.pwrStateResidencyTicks::UNDEFINED        50000                       # Cumulative time (in ticks) in various power states (Tick)
system.ruby.network.ext_links1.credit_in_links2.power_state.pwrStateResidencyTicks::UNDEFINED        50000                       # Cumulative time (in ticks) in various power states (Tick)
system.ruby.network.ext_links1.credit_in_links3.power_state.pwrStateResidencyTicks::UNDEFINED        50000                       # Cumulative time (in ticks) in various power states (Tick)
system.ruby.network.ext_links1.credit_in_links4.power_state.pwrStateResidencyTicks::UNDEFINED        50000                       # Cumulative time (in ticks) in various power states (Tick)
system.ruby.network.ext_links1.credit_out_links0.power_state.pwrStateResidencyTicks::UNDEFINED        50000                       # Cumulative time (in ticks) in various power states (Tick)
system.ruby.network.ext_links1.credit_out_links1.power_state.pwrStateResidencyTicks::UNDEFINED        50000                       # Cumulative time (in ticks) in various power states (Tick)
system.ruby.network.ext_links1.credit_out_links2.power_state.pwrStateResidencyTicks::UNDEFINED        50000                       # Cumulative time (in ticks) in various power states (Tick)
system.ruby.network.ext_links1.credit_out_links3.power_state.pwrStateResidencyTicks::UNDEFINED        50000                       # Cumulative time (in ticks) in various power states (Tick)
system.ruby.network.ext_links1.credit_out_links4.power_state.pwrStateResidencyTicks::UNDEFINED        50000                       # Cumulative time (in ticks) in various power states (Tick)
system.ruby.network.ext_links1.ext_node.dma_sequencer.dcache.m_demand_hits            0                       # Number of cache demand hits (Unspecified)
system.ruby.network.ext_links1.ext_node.dma_sequencer.dcache.m_demand_misses            0                       # Number of cache demand misses (Unspecified)
system.ruby.network.ext_links1.ext_node.dma_sequencer.dcache.m_demand_accesses            0                       # Number of cache demand accesses (Unspecified)
system.ruby.network.ext_links1.ext_node.dma_sequencer.power_state.pwrStateResidencyTicks::UNDEFINED        50000                       # Cumulative time (in ticks) in various power states (Tick)
system.ruby.network.ext_links1.ext_node.mandatoryQueue.m_msg_count        12000                       # Number of messages passed the buffer (Count)
system.ruby.network.ext_links1.ext_node.mandatoryQueue.m_buf_msgs     0.239995                       # Average number of messages in buffer ((Count/Tick))
system.ruby.network.ext_links1.ext_node.power_state.pwrStateResidencyTicks::UNDEFINED        50000                       # Cumulative time (in ticks) in various power states (Tick)
system.ruby.network.ext_links1.ext_node.requestToDir.m_msg_count        12000                       # Number of messages passed the buffer (Count)
system.ruby.network.ext_links1.ext_node.requestToDir.m_buf_msgs     0.239995                       # Average number of messages in buffer ((Count/Tick))
system.ruby.network.ext_links1.ext_node.responseFromDir.m_msg_count        12000                       # Number of messages passed the buffer (Count)
system.ruby.network.ext_links1.ext_node.responseFromDir.m_buf_msgs     0.239995                       # Average number of messages in buffer ((Count/Tick))
system.ruby.network.ext_links1.network_in_links0.power_state.pwrStateResidencyTicks::UNDEFINED        50000                       # Cumulative time (in ticks) in various power states (Tick)
system.ruby.network.ext_links1.network_in_links1.power_state.pwrStateResidencyTicks::UNDEFINED        50000                       # Cumulative time (in ticks) in various power states (Tick)
system.ruby.network.ext_links1.network_in_links2.power_state.pwrStateResidencyTicks::UNDEFINED        50000                       # Cumulative time (in ticks) in various power states (Tick)
system.ruby.network.ext_links1.network_in_links3.power_state.pwrStateResidencyTicks::UNDEFINED        50000                       # Cumulative time (in ticks) in various power states (Tick)
system.ruby.network.ext_links1.network_in_links4.power_state.pwrStateResidencyTicks::UNDEFINED        50000                       # Cumulative time (in ticks) in various power states (Tick)
system.ruby.network.ext_links1.network_out_links0.power_state.pwrStateResidencyTicks::UNDEFINED        50000                       # Cumulative time (in ticks) in various power states (Tick)
system.ruby.network.ext_links1.network_out_links1.power_state.pwrStateResidencyTicks::UNDEFINED        50000                       # Cumulative time (in ticks) in various power states (Tick)
system.ruby.network.ext_links1.network_out_links2.power_state.pwrStateResidencyTicks::UNDEFINED        50000                       # Cumulative time (in ticks) in various power states (Tick)
system.ruby.network.ext_links1.network_out_links3.power_state.pwrStateResidencyTicks::UNDEFINED        50000                       # Cumulative time (in ticks) in various power states (Tick)
system.ruby.network.ext_links1.network_out_links4.power_state.pwrStateResidencyTicks::UNDEFINED        50000                       # Cumulative time (in ticks) in various power states (Tick)
system.ruby.network.ext_links10.credit_in_links0.power_state.pwrStateResidencyTicks::UNDEFINED        50000                       # Cumulative time (in ticks) in various power states (Tick)
system.ruby.network.ext_links10.credit_in_links1.power_state.pwrStateResidencyTicks::UNDEFINED        50000                       # Cumulative time (in ticks) in various power states (Tick)
system.ruby.network.ext_links10.credit_in_links2.power_state.pwrStateResidencyTicks::UNDEFINED        50000                       # Cumulative time (in ticks) in various power states (Tick)
system.ruby.network.ext_links10.credit_in_links3.power_state.pwrStateResidencyTicks::UNDEFINED        50000                       # Cumulative time (in ticks) in various power states (Tick)
system.ruby.network.ext_links10.credit_in_links4.power_state.pwrStateResidencyTicks::UNDEFINED        50000                       # Cumulative time (in ticks) in various power states (Tick)
system.ruby.network.ext_links10.credit_out_links0.power_state.pwrStateResidencyTicks::UNDEFINED        50000                       # Cumulative time (in ticks) in various power states (Tick)
system.ruby.network.ext_links10.credit_out_links1.power_state.pwrStateResidencyTicks::UNDEFINED        50000                       # Cumulative time (in ticks) in various power states (Tick)
system.ruby.network.ext_links10.credit_out_links2.power_state.pwrStateResidencyTicks::UNDEFINED        50000                       # Cumulative time (in ticks) in various power states (Tick)
system.ruby.network.ext_links10.credit_out_links3.power_state.pwrStateResidencyTicks::UNDEFINED        50000                       # Cumulative time (in ticks) in various power states (Tick)
system.ruby.network.ext_links10.credit_out_links4.power_state.pwrStateResidencyTicks::UNDEFINED        50000                       # Cumulative time (in ticks) in various power states (Tick)
system.ruby.network.ext_links10.ext_node.dma_sequencer.dcache.m_demand_hits            0                       # Number of cache demand hits (Unspecified)
system.ruby.network.ext_links10.ext_node.dma_sequencer.dcache.m_demand_misses            0                       # Number of cache demand misses (Unspecified)
system.ruby.network.ext_links10.ext_node.dma_sequencer.dcache.m_demand_accesses            0                       # Number of cache demand accesses (Unspecified)
system.ruby.network.ext_links10.ext_node.dma_sequencer.power_state.pwrStateResidencyTicks::UNDEFINED        50000                       # Cumulative time (in ticks) in various power states (Tick)
system.ruby.network.ext_links10.ext_node.power_state.pwrStateResidencyTicks::UNDEFINED        50000                       # Cumulative time (in ticks) in various power states (Tick)
system.ruby.network.ext_links10.network_in_links0.power_state.pwrStateResidencyTicks::UNDEFINED        50000                       # Cumulative time (in ticks) in various power states (Tick)
system.ruby.network.ext_links10.network_in_links1.power_state.pwrStateResidencyTicks::UNDEFINED        50000                       # Cumulative time (in ticks) in various power states (Tick)
system.ruby.network.ext_links10.network_in_links2.power_state.pwrStateResidencyTicks::UNDEFINED        50000                       # Cumulative time (in ticks) in various power states (Tick)
system.ruby.network.ext_links10.network_in_links3.power_state.pwrStateResidencyTicks::UNDEFINED        50000                       # Cumulative time (in ticks) in various power states (Tick)
system.ruby.network.ext_links10.network_in_links4.power_state.pwrStateResidencyTicks::UNDEFINED        50000                       # Cumulative time (in ticks) in various power states (Tick)
system.ruby.network.ext_links10.network_out_links0.power_state.pwrStateResidencyTicks::UNDEFINED        50000                       # Cumulative time (in ticks) in various power states (Tick)
system.ruby.network.ext_links10.network_out_links1.power_state.pwrStateResidencyTicks::UNDEFINED        50000                       # Cumulative time (in ticks) in various power states (Tick)
system.ruby.network.ext_links10.network_out_links2.power_state.pwrStateResidencyTicks::UNDEFINED        50000                       # Cumulative time (in ticks) in various power states (Tick)
system.ruby.network.ext_links10.network_out_links3.power_state.pwrStateResidencyTicks::UNDEFINED        50000                       # Cumulative time (in ticks) in various power states (Tick)
system.ruby.network.ext_links10.network_out_links4.power_state.pwrStateResidencyTicks::UNDEFINED        50000                       # Cumulative time (in ticks) in various power states (Tick)
system.ruby.network.ext_links11.credit_in_links0.power_state.pwrStateResidencyTicks::UNDEFINED        50000                       # Cumulative time (in ticks) in various power states (Tick)
system.ruby.network.ext_links11.credit_in_links1.power_state.pwrStateResidencyTicks::UNDEFINED        50000                       # Cumulative time (in ticks) in various power states (Tick)
system.ruby.network.ext_links11.credit_in_links2.power_state.pwrStateResidencyTicks::UNDEFINED        50000                       # Cumulative time (in ticks) in various power states (Tick)
system.ruby.network.ext_links11.credit_in_links3.power_state.pwrStateResidencyTicks::UNDEFINED        50000                       # Cumulative time (in ticks) in various power states (Tick)
system.ruby.network.ext_links11.credit_in_links4.power_state.pwrStateResidencyTicks::UNDEFINED        50000                       # Cumulative time (in ticks) in various power states (Tick)
system.ruby.network.ext_links11.credit_out_links0.power_state.pwrStateResidencyTicks::UNDEFINED        50000                       # Cumulative time (in ticks) in various power states (Tick)
system.ruby.network.ext_links11.credit_out_links1.power_state.pwrStateResidencyTicks::UNDEFINED        50000                       # Cumulative time (in ticks) in various power states (Tick)
system.ruby.network.ext_links11.credit_out_links2.power_state.pwrStateResidencyTicks::UNDEFINED        50000                       # Cumulative time (in ticks) in various power states (Tick)
system.ruby.network.ext_links11.credit_out_links3.power_state.pwrStateResidencyTicks::UNDEFINED        50000                       # Cumulative time (in ticks) in various power states (Tick)
system.ruby.network.ext_links11.credit_out_links4.power_state.pwrStateResidencyTicks::UNDEFINED        50000                       # Cumulative time (in ticks) in various power states (Tick)
system.ruby.network.ext_links11.ext_node.dma_sequencer.dcache.m_demand_hits            0                       # Number of cache demand hits (Unspecified)
system.ruby.network.ext_links11.ext_node.dma_sequencer.dcache.m_demand_misses            0                       # Number of cache demand misses (Unspecified)
system.ruby.network.ext_links11.ext_node.dma_sequencer.dcache.m_demand_accesses            0                       # Number of cache demand accesses (Unspecified)
system.ruby.network.ext_links11.ext_node.dma_sequencer.power_state.pwrStateResidencyTicks::UNDEFINED        50000                       # Cumulative time (in ticks) in various power states (Tick)
system.ruby.network.ext_links11.ext_node.mandatoryQueue.m_msg_count        12000                       # Number of messages passed the buffer (Count)
system.ruby.network.ext_links11.ext_node.mandatoryQueue.m_buf_msgs     0.239995                       # Average number of messages in buffer ((Count/Tick))
system.ruby.network.ext_links11.ext_node.power_state.pwrStateResidencyTicks::UNDEFINED        50000                       # Cumulative time (in ticks) in various power states (Tick)
system.ruby.network.ext_links11.ext_node.requestToDir.m_msg_count        12000                       # Number of messages passed the buffer (Count)
system.ruby.network.ext_links11.ext_node.requestToDir.m_buf_msgs     0.239995                       # Average number of messages in buffer ((Count/Tick))
system.ruby.network.ext_links11.ext_node.responseFromDir.m_msg_count        12000                       # Number of messages passed the buffer (Count)
system.ruby.network.ext_links11.ext_node.responseFromDir.m_buf_msgs     0.239995                       # Average number of messages in buffer ((Count/Tick))
system.ruby.network.ext_links11.network_in_links0.power_state.pwrStateResidencyTicks::UNDEFINED        50000                       # Cumulative time (in ticks) in various power states (Tick)
system.ruby.network.ext_links11.network_in_links1.power_state.pwrStateResidencyTicks::UNDEFINED        50000                       # Cumulative time (in ticks) in various power states (Tick)
system.ruby.network.ext_links11.network_in_links2.power_state.pwrStateResidencyTicks::UNDEFINED        50000                       # Cumulative time (in ticks) in various power states (Tick)
system.ruby.network.ext_links11.network_in_links3.power_state.pwrStateResidencyTicks::UNDEFINED        50000                       # Cumulative time (in ticks) in various power states (Tick)
system.ruby.network.ext_links11.network_in_links4.power_state.pwrStateResidencyTicks::UNDEFINED        50000                       # Cumulative time (in ticks) in various power states (Tick)
system.ruby.network.ext_links11.network_out_links0.power_state.pwrStateResidencyTicks::UNDEFINED        50000                       # Cumulative time (in ticks) in various power states (Tick)
system.ruby.network.ext_links11.network_out_links1.power_state.pwrStateResidencyTicks::UNDEFINED        50000                       # Cumulative time (in ticks) in various power states (Tick)
system.ruby.network.ext_links11.network_out_links2.power_state.pwrStateResidencyTicks::UNDEFINED        50000                       # Cumulative time (in ticks) in various power states (Tick)
system.ruby.network.ext_links11.network_out_links3.power_state.pwrStateResidencyTicks::UNDEFINED        50000                       # Cumulative time (in ticks) in various power states (Tick)
system.ruby.network.ext_links11.network_out_links4.power_state.pwrStateResidencyTicks::UNDEFINED        50000                       # Cumulative time (in ticks) in various power states (Tick)
system.ruby.network.ext_links12.credit_in_links0.power_state.pwrStateResidencyTicks::UNDEFINED        50000                       # Cumulative time (in ticks) in various power states (Tick)
system.ruby.network.ext_links12.credit_in_links1.power_state.pwrStateResidencyTicks::UNDEFINED        50000                       # Cumulative time (in ticks) in various power states (Tick)
system.ruby.network.ext_links12.credit_in_links2.power_state.pwrStateResidencyTicks::UNDEFINED        50000                       # Cumulative time (in ticks) in various power states (Tick)
system.ruby.network.ext_links12.credit_in_links3.power_state.pwrStateResidencyTicks::UNDEFINED        50000                       # Cumulative time (in ticks) in various power states (Tick)
system.ruby.network.ext_links12.credit_in_links4.power_state.pwrStateResidencyTicks::UNDEFINED        50000                       # Cumulative time (in ticks) in various power states (Tick)
system.ruby.network.ext_links12.credit_out_links0.power_state.pwrStateResidencyTicks::UNDEFINED        50000                       # Cumulative time (in ticks) in various power states (Tick)
system.ruby.network.ext_links12.credit_out_links1.power_state.pwrStateResidencyTicks::UNDEFINED        50000                       # Cumulative time (in ticks) in various power states (Tick)
system.ruby.network.ext_links12.credit_out_links2.power_state.pwrStateResidencyTicks::UNDEFINED        50000                       # Cumulative time (in ticks) in various power states (Tick)
system.ruby.network.ext_links12.credit_out_links3.power_state.pwrStateResidencyTicks::UNDEFINED        50000                       # Cumulative time (in ticks) in various power states (Tick)
system.ruby.network.ext_links12.credit_out_links4.power_state.pwrStateResidencyTicks::UNDEFINED        50000                       # Cumulative time (in ticks) in various power states (Tick)
system.ruby.network.ext_links12.ext_node.dma_sequencer.dcache.m_demand_hits            0                       # Number of cache demand hits (Unspecified)
system.ruby.network.ext_links12.ext_node.dma_sequencer.dcache.m_demand_misses            0                       # Number of cache demand misses (Unspecified)
system.ruby.network.ext_links12.ext_node.dma_sequencer.dcache.m_demand_accesses            0                       # Number of cache demand accesses (Unspecified)
system.ruby.network.ext_links12.ext_node.dma_sequencer.power_state.pwrStateResidencyTicks::UNDEFINED        50000                       # Cumulative time (in ticks) in various power states (Tick)
system.ruby.network.ext_links12.ext_node.power_state.pwrStateResidencyTicks::UNDEFINED        50000                       # Cumulative time (in ticks) in various power states (Tick)
system.ruby.network.ext_links12.network_in_links0.power_state.pwrStateResidencyTicks::UNDEFINED        50000                       # Cumulative time (in ticks) in various power states (Tick)
system.ruby.network.ext_links12.network_in_links1.power_state.pwrStateResidencyTicks::UNDEFINED        50000                       # Cumulative time (in ticks) in various power states (Tick)
system.ruby.network.ext_links12.network_in_links2.power_state.pwrStateResidencyTicks::UNDEFINED        50000                       # Cumulative time (in ticks) in various power states (Tick)
system.ruby.network.ext_links12.network_in_links3.power_state.pwrStateResidencyTicks::UNDEFINED        50000                       # Cumulative time (in ticks) in various power states (Tick)
system.ruby.network.ext_links12.network_in_links4.power_state.pwrStateResidencyTicks::UNDEFINED        50000                       # Cumulative time (in ticks) in various power states (Tick)
system.ruby.network.ext_links12.network_out_links0.power_state.pwrStateResidencyTicks::UNDEFINED        50000                       # Cumulative time (in ticks) in various power states (Tick)
system.ruby.network.ext_links12.network_out_links1.power_state.pwrStateResidencyTicks::UNDEFINED        50000                       # Cumulative time (in ticks) in various power states (Tick)
system.ruby.network.ext_links12.network_out_links2.power_state.pwrStateResidencyTicks::UNDEFINED        50000                       # Cumulative time (in ticks) in various power states (Tick)
system.ruby.network.ext_links12.network_out_links3.power_state.pwrStateResidencyTicks::UNDEFINED        50000                       # Cumulative time (in ticks) in various power states (Tick)
system.ruby.network.ext_links12.network_out_links4.power_state.pwrStateResidencyTicks::UNDEFINED        50000                       # Cumulative time (in ticks) in various power states (Tick)
system.ruby.network.ext_links13.credit_in_links0.power_state.pwrStateResidencyTicks::UNDEFINED        50000                       # Cumulative time (in ticks) in various power states (Tick)
system.ruby.network.ext_links13.credit_in_links1.power_state.pwrStateResidencyTicks::UNDEFINED        50000                       # Cumulative time (in ticks) in various power states (Tick)
system.ruby.network.ext_links13.credit_in_links2.power_state.pwrStateResidencyTicks::UNDEFINED        50000                       # Cumulative time (in ticks) in various power states (Tick)
system.ruby.network.ext_links13.credit_in_links3.power_state.pwrStateResidencyTicks::UNDEFINED        50000                       # Cumulative time (in ticks) in various power states (Tick)
system.ruby.network.ext_links13.credit_in_links4.power_state.pwrStateResidencyTicks::UNDEFINED        50000                       # Cumulative time (in ticks) in various power states (Tick)
system.ruby.network.ext_links13.credit_out_links0.power_state.pwrStateResidencyTicks::UNDEFINED        50000                       # Cumulative time (in ticks) in various power states (Tick)
system.ruby.network.ext_links13.credit_out_links1.power_state.pwrStateResidencyTicks::UNDEFINED        50000                       # Cumulative time (in ticks) in various power states (Tick)
system.ruby.network.ext_links13.credit_out_links2.power_state.pwrStateResidencyTicks::UNDEFINED        50000                       # Cumulative time (in ticks) in various power states (Tick)
system.ruby.network.ext_links13.credit_out_links3.power_state.pwrStateResidencyTicks::UNDEFINED        50000                       # Cumulative time (in ticks) in various power states (Tick)
system.ruby.network.ext_links13.credit_out_links4.power_state.pwrStateResidencyTicks::UNDEFINED        50000                       # Cumulative time (in ticks) in various power states (Tick)
system.ruby.network.ext_links13.ext_node.dma_sequencer.dcache.m_demand_hits            0                       # Number of cache demand hits (Unspecified)
system.ruby.network.ext_links13.ext_node.dma_sequencer.dcache.m_demand_misses            0                       # Number of cache demand misses (Unspecified)
system.ruby.network.ext_links13.ext_node.dma_sequencer.dcache.m_demand_accesses            0                       # Number of cache demand accesses (Unspecified)
system.ruby.network.ext_links13.ext_node.dma_sequencer.power_state.pwrStateResidencyTicks::UNDEFINED        50000                       # Cumulative time (in ticks) in various power states (Tick)
system.ruby.network.ext_links13.ext_node.mandatoryQueue.m_msg_count        12000                       # Number of messages passed the buffer (Count)
system.ruby.network.ext_links13.ext_node.mandatoryQueue.m_buf_msgs     0.239995                       # Average number of messages in buffer ((Count/Tick))
system.ruby.network.ext_links13.ext_node.power_state.pwrStateResidencyTicks::UNDEFINED        50000                       # Cumulative time (in ticks) in various power states (Tick)
system.ruby.network.ext_links13.ext_node.requestToDir.m_msg_count        12000                       # Number of messages passed the buffer (Count)
system.ruby.network.ext_links13.ext_node.requestToDir.m_buf_msgs     0.239995                       # Average number of messages in buffer ((Count/Tick))
system.ruby.network.ext_links13.ext_node.responseFromDir.m_msg_count        12000                       # Number of messages passed the buffer (Count)
system.ruby.network.ext_links13.ext_node.responseFromDir.m_buf_msgs     0.239995                       # Average number of messages in buffer ((Count/Tick))
system.ruby.network.ext_links13.network_in_links0.power_state.pwrStateResidencyTicks::UNDEFINED        50000                       # Cumulative time (in ticks) in various power states (Tick)
system.ruby.network.ext_links13.network_in_links1.power_state.pwrStateResidencyTicks::UNDEFINED        50000                       # Cumulative time (in ticks) in various power states (Tick)
system.ruby.network.ext_links13.network_in_links2.power_state.pwrStateResidencyTicks::UNDEFINED        50000                       # Cumulative time (in ticks) in various power states (Tick)
system.ruby.network.ext_links13.network_in_links3.power_state.pwrStateResidencyTicks::UNDEFINED        50000                       # Cumulative time (in ticks) in various power states (Tick)
system.ruby.network.ext_links13.network_in_links4.power_state.pwrStateResidencyTicks::UNDEFINED        50000                       # Cumulative time (in ticks) in various power states (Tick)
system.ruby.network.ext_links13.network_out_links0.power_state.pwrStateResidencyTicks::UNDEFINED        50000                       # Cumulative time (in ticks) in various power states (Tick)
system.ruby.network.ext_links13.network_out_links1.power_state.pwrStateResidencyTicks::UNDEFINED        50000                       # Cumulative time (in ticks) in various power states (Tick)
system.ruby.network.ext_links13.network_out_links2.power_state.pwrStateResidencyTicks::UNDEFINED        50000                       # Cumulative time (in ticks) in various power states (Tick)
system.ruby.network.ext_links13.network_out_links3.power_state.pwrStateResidencyTicks::UNDEFINED        50000                       # Cumulative time (in ticks) in various power states (Tick)
system.ruby.network.ext_links13.network_out_links4.power_state.pwrStateResidencyTicks::UNDEFINED        50000                       # Cumulative time (in ticks) in various power states (Tick)
system.ruby.network.ext_links14.credit_in_links0.power_state.pwrStateResidencyTicks::UNDEFINED        50000                       # Cumulative time (in ticks) in various power states (Tick)
system.ruby.network.ext_links14.credit_in_links1.power_state.pwrStateResidencyTicks::UNDEFINED        50000                       # Cumulative time (in ticks) in various power states (Tick)
system.ruby.network.ext_links14.credit_in_links2.power_state.pwrStateResidencyTicks::UNDEFINED        50000                       # Cumulative time (in ticks) in various power states (Tick)
system.ruby.network.ext_links14.credit_in_links3.power_state.pwrStateResidencyTicks::UNDEFINED        50000                       # Cumulative time (in ticks) in various power states (Tick)
system.ruby.network.ext_links14.credit_in_links4.power_state.pwrStateResidencyTicks::UNDEFINED        50000                       # Cumulative time (in ticks) in various power states (Tick)
system.ruby.network.ext_links14.credit_out_links0.power_state.pwrStateResidencyTicks::UNDEFINED        50000                       # Cumulative time (in ticks) in various power states (Tick)
system.ruby.network.ext_links14.credit_out_links1.power_state.pwrStateResidencyTicks::UNDEFINED        50000                       # Cumulative time (in ticks) in various power states (Tick)
system.ruby.network.ext_links14.credit_out_links2.power_state.pwrStateResidencyTicks::UNDEFINED        50000                       # Cumulative time (in ticks) in various power states (Tick)
system.ruby.network.ext_links14.credit_out_links3.power_state.pwrStateResidencyTicks::UNDEFINED        50000                       # Cumulative time (in ticks) in various power states (Tick)
system.ruby.network.ext_links14.credit_out_links4.power_state.pwrStateResidencyTicks::UNDEFINED        50000                       # Cumulative time (in ticks) in various power states (Tick)
system.ruby.network.ext_links14.ext_node.dma_sequencer.dcache.m_demand_hits            0                       # Number of cache demand hits (Unspecified)
system.ruby.network.ext_links14.ext_node.dma_sequencer.dcache.m_demand_misses            0                       # Number of cache demand misses (Unspecified)
system.ruby.network.ext_links14.ext_node.dma_sequencer.dcache.m_demand_accesses            0                       # Number of cache demand accesses (Unspecified)
system.ruby.network.ext_links14.ext_node.dma_sequencer.power_state.pwrStateResidencyTicks::UNDEFINED        50000                       # Cumulative time (in ticks) in various power states (Tick)
system.ruby.network.ext_links14.ext_node.power_state.pwrStateResidencyTicks::UNDEFINED        50000                       # Cumulative time (in ticks) in various power states (Tick)
system.ruby.network.ext_links14.network_in_links0.power_state.pwrStateResidencyTicks::UNDEFINED        50000                       # Cumulative time (in ticks) in various power states (Tick)
system.ruby.network.ext_links14.network_in_links1.power_state.pwrStateResidencyTicks::UNDEFINED        50000                       # Cumulative time (in ticks) in various power states (Tick)
system.ruby.network.ext_links14.network_in_links2.power_state.pwrStateResidencyTicks::UNDEFINED        50000                       # Cumulative time (in ticks) in various power states (Tick)
system.ruby.network.ext_links14.network_in_links3.power_state.pwrStateResidencyTicks::UNDEFINED        50000                       # Cumulative time (in ticks) in various power states (Tick)
system.ruby.network.ext_links14.network_in_links4.power_state.pwrStateResidencyTicks::UNDEFINED        50000                       # Cumulative time (in ticks) in various power states (Tick)
system.ruby.network.ext_links14.network_out_links0.power_state.pwrStateResidencyTicks::UNDEFINED        50000                       # Cumulative time (in ticks) in various power states (Tick)
system.ruby.network.ext_links14.network_out_links1.power_state.pwrStateResidencyTicks::UNDEFINED        50000                       # Cumulative time (in ticks) in various power states (Tick)
system.ruby.network.ext_links14.network_out_links2.power_state.pwrStateResidencyTicks::UNDEFINED        50000                       # Cumulative time (in ticks) in various power states (Tick)
system.ruby.network.ext_links14.network_out_links3.power_state.pwrStateResidencyTicks::UNDEFINED        50000                       # Cumulative time (in ticks) in various power states (Tick)
system.ruby.network.ext_links14.network_out_links4.power_state.pwrStateResidencyTicks::UNDEFINED        50000                       # Cumulative time (in ticks) in various power states (Tick)
system.ruby.network.ext_links15.credit_in_links0.power_state.pwrStateResidencyTicks::UNDEFINED        50000                       # Cumulative time (in ticks) in various power states (Tick)
system.ruby.network.ext_links15.credit_in_links1.power_state.pwrStateResidencyTicks::UNDEFINED        50000                       # Cumulative time (in ticks) in various power states (Tick)
system.ruby.network.ext_links15.credit_in_links2.power_state.pwrStateResidencyTicks::UNDEFINED        50000                       # Cumulative time (in ticks) in various power states (Tick)
system.ruby.network.ext_links15.credit_in_links3.power_state.pwrStateResidencyTicks::UNDEFINED        50000                       # Cumulative time (in ticks) in various power states (Tick)
system.ruby.network.ext_links15.credit_in_links4.power_state.pwrStateResidencyTicks::UNDEFINED        50000                       # Cumulative time (in ticks) in various power states (Tick)
system.ruby.network.ext_links15.credit_out_links0.power_state.pwrStateResidencyTicks::UNDEFINED        50000                       # Cumulative time (in ticks) in various power states (Tick)
system.ruby.network.ext_links15.credit_out_links1.power_state.pwrStateResidencyTicks::UNDEFINED        50000                       # Cumulative time (in ticks) in various power states (Tick)
system.ruby.network.ext_links15.credit_out_links2.power_state.pwrStateResidencyTicks::UNDEFINED        50000                       # Cumulative time (in ticks) in various power states (Tick)
system.ruby.network.ext_links15.credit_out_links3.power_state.pwrStateResidencyTicks::UNDEFINED        50000                       # Cumulative time (in ticks) in various power states (Tick)
system.ruby.network.ext_links15.credit_out_links4.power_state.pwrStateResidencyTicks::UNDEFINED        50000                       # Cumulative time (in ticks) in various power states (Tick)
system.ruby.network.ext_links15.ext_node.dma_sequencer.dcache.m_demand_hits            0                       # Number of cache demand hits (Unspecified)
system.ruby.network.ext_links15.ext_node.dma_sequencer.dcache.m_demand_misses            0                       # Number of cache demand misses (Unspecified)
system.ruby.network.ext_links15.ext_node.dma_sequencer.dcache.m_demand_accesses            0                       # Number of cache demand accesses (Unspecified)
system.ruby.network.ext_links15.ext_node.dma_sequencer.power_state.pwrStateResidencyTicks::UNDEFINED        50000                       # Cumulative time (in ticks) in various power states (Tick)
system.ruby.network.ext_links15.ext_node.mandatoryQueue.m_msg_count        12000                       # Number of messages passed the buffer (Count)
system.ruby.network.ext_links15.ext_node.mandatoryQueue.m_buf_msgs     0.239995                       # Average number of messages in buffer ((Count/Tick))
system.ruby.network.ext_links15.ext_node.power_state.pwrStateResidencyTicks::UNDEFINED        50000                       # Cumulative time (in ticks) in various power states (Tick)
system.ruby.network.ext_links15.ext_node.requestToDir.m_msg_count        12000                       # Number of messages passed the buffer (Count)
system.ruby.network.ext_links15.ext_node.requestToDir.m_buf_msgs     0.239995                       # Average number of messages in buffer ((Count/Tick))
system.ruby.network.ext_links15.ext_node.responseFromDir.m_msg_count        12000                       # Number of messages passed the buffer (Count)
system.ruby.network.ext_links15.ext_node.responseFromDir.m_buf_msgs     0.239995                       # Average number of messages in buffer ((Count/Tick))
system.ruby.network.ext_links15.network_in_links0.power_state.pwrStateResidencyTicks::UNDEFINED        50000                       # Cumulative time (in ticks) in various power states (Tick)
system.ruby.network.ext_links15.network_in_links1.power_state.pwrStateResidencyTicks::UNDEFINED        50000                       # Cumulative time (in ticks) in various power states (Tick)
system.ruby.network.ext_links15.network_in_links2.power_state.pwrStateResidencyTicks::UNDEFINED        50000                       # Cumulative time (in ticks) in various power states (Tick)
system.ruby.network.ext_links15.network_in_links3.power_state.pwrStateResidencyTicks::UNDEFINED        50000                       # Cumulative time (in ticks) in various power states (Tick)
system.ruby.network.ext_links15.network_in_links4.power_state.pwrStateResidencyTicks::UNDEFINED        50000                       # Cumulative time (in ticks) in various power states (Tick)
system.ruby.network.ext_links15.network_out_links0.power_state.pwrStateResidencyTicks::UNDEFINED        50000                       # Cumulative time (in ticks) in various power states (Tick)
system.ruby.network.ext_links15.network_out_links1.power_state.pwrStateResidencyTicks::UNDEFINED        50000                       # Cumulative time (in ticks) in various power states (Tick)
system.ruby.network.ext_links15.network_out_links2.power_state.pwrStateResidencyTicks::UNDEFINED        50000                       # Cumulative time (in ticks) in various power states (Tick)
system.ruby.network.ext_links15.network_out_links3.power_state.pwrStateResidencyTicks::UNDEFINED        50000                       # Cumulative time (in ticks) in various power states (Tick)
system.ruby.network.ext_links15.network_out_links4.power_state.pwrStateResidencyTicks::UNDEFINED        50000                       # Cumulative time (in ticks) in various power states (Tick)
system.ruby.network.ext_links16.credit_in_links0.power_state.pwrStateResidencyTicks::UNDEFINED        50000                       # Cumulative time (in ticks) in various power states (Tick)
system.ruby.network.ext_links16.credit_in_links1.power_state.pwrStateResidencyTicks::UNDEFINED        50000                       # Cumulative time (in ticks) in various power states (Tick)
system.ruby.network.ext_links16.credit_in_links2.power_state.pwrStateResidencyTicks::UNDEFINED        50000                       # Cumulative time (in ticks) in various power states (Tick)
system.ruby.network.ext_links16.credit_in_links3.power_state.pwrStateResidencyTicks::UNDEFINED        50000                       # Cumulative time (in ticks) in various power states (Tick)
system.ruby.network.ext_links16.credit_in_links4.power_state.pwrStateResidencyTicks::UNDEFINED        50000                       # Cumulative time (in ticks) in various power states (Tick)
system.ruby.network.ext_links16.credit_out_links0.power_state.pwrStateResidencyTicks::UNDEFINED        50000                       # Cumulative time (in ticks) in various power states (Tick)
system.ruby.network.ext_links16.credit_out_links1.power_state.pwrStateResidencyTicks::UNDEFINED        50000                       # Cumulative time (in ticks) in various power states (Tick)
system.ruby.network.ext_links16.credit_out_links2.power_state.pwrStateResidencyTicks::UNDEFINED        50000                       # Cumulative time (in ticks) in various power states (Tick)
system.ruby.network.ext_links16.credit_out_links3.power_state.pwrStateResidencyTicks::UNDEFINED        50000                       # Cumulative time (in ticks) in various power states (Tick)
system.ruby.network.ext_links16.credit_out_links4.power_state.pwrStateResidencyTicks::UNDEFINED        50000                       # Cumulative time (in ticks) in various power states (Tick)
system.ruby.network.ext_links16.network_in_links0.power_state.pwrStateResidencyTicks::UNDEFINED        50000                       # Cumulative time (in ticks) in various power states (Tick)
system.ruby.network.ext_links16.network_in_links1.power_state.pwrStateResidencyTicks::UNDEFINED        50000                       # Cumulative time (in ticks) in various power states (Tick)
system.ruby.network.ext_links16.network_in_links2.power_state.pwrStateResidencyTicks::UNDEFINED        50000                       # Cumulative time (in ticks) in various power states (Tick)
system.ruby.network.ext_links16.network_in_links3.power_state.pwrStateResidencyTicks::UNDEFINED        50000                       # Cumulative time (in ticks) in various power states (Tick)
system.ruby.network.ext_links16.network_in_links4.power_state.pwrStateResidencyTicks::UNDEFINED        50000                       # Cumulative time (in ticks) in various power states (Tick)
system.ruby.network.ext_links16.network_out_links0.power_state.pwrStateResidencyTicks::UNDEFINED        50000                       # Cumulative time (in ticks) in various power states (Tick)
system.ruby.network.ext_links16.network_out_links1.power_state.pwrStateResidencyTicks::UNDEFINED        50000                       # Cumulative time (in ticks) in various power states (Tick)
system.ruby.network.ext_links16.network_out_links2.power_state.pwrStateResidencyTicks::UNDEFINED        50000                       # Cumulative time (in ticks) in various power states (Tick)
[...]
system.ruby.network.int_links33.network_link1.link_utilization         4936                       # Number of cycles link is utilized (Unspecified)
system.ruby.network.int_links34.network_link1.link_utilization         9569                       # Number of cycles link is utilized (Unspecified)
system.ruby.network.int_links35.network_link1.link_utilization         5369                       # Number of cycles link is utilized (Unspecified)
system.ruby.network.int_links36.network_link0.link_utilization        10013                       # Number of cycles link is utilized (Unspecified)
system.ruby.network.int_links37.network_link0.link_utilization         6432                       # Number of cycles link is utilized (Unspecified)
system.ruby.network.int_links37.network_link1.link_utilization         6099                       # Number of cycles link is utilized (Unspecified)
system.ruby.network.int_links38.network_link1.link_utilization        11797                       # Number of cycles link is utilized (Unspecified)
system.ruby.network.int_links39.network_link1.link_utilization        10726                       # Number of cycles link is utilized (Unspecified)
system.ruby.network.int_links40.network_link0.link_utilization         7016                       # Number of cycles link is utilized (Unspecified)
system.ruby.network.int_links41.network_link0.link_utilization         4543                       # Number of cycles link is utilized (Unspecified)
system.ruby.network.int_links41.network_link1.link_utilization         6426                       # Number of cycles link is utilized (Unspecified)
system.ruby.network.int_links42.network_link1.link_utilization        12312                       # Number of cycles link is utilized (Unspecified)
system.ruby.network.int_links43.network_link1.link_utilization        10477                       # Number of cycles link is utilized (Unspecified)
system.ruby.network.int_links45.network_link0.link_utilization         1713                       # Number of cycles link is utilized (Unspecified)
system.ruby.network.int_links45.network_link1.link_utilization         2082                       # Number of cycles link is utilized (Unspecified)
system.ruby.network.int_links46.network_link1.link_utilization         5199                       # Number of cycles link is utilized (Unspecified)
system.ruby.network.int_links49.network_link0.link_utilization         3557                       # Number of cycles link is utilized (Unspecified)
system.ruby.network.int_links49.network_link1.link_utilization         3220                       # Number of cycles link is utilized (Unspecified)
system.ruby.network.int_links50.network_link0.link_utilization         9858                       # Number of cycles link is utilized (Unspecified)
system.ruby.network.int_links50.network_link1.link_utilization          996                       # Number of cycles link is utilized (Unspecified)
system.ruby.network.int_links51.network_link0.link_utilization         7776                       # Number of cycles link is utilized (Unspecified)
system.ruby.network.int_links51.network_link1.link_utilization         2151                       # Number of cycles link is utilized (Unspecified)
system.ruby.network.int_links54.network_link0.link_utilization         5830                       # Number of cycles link is utilized (Unspecified)
system.ruby.network.int_links54.network_link1.link_utilization         4276                       # Number of cycles link is utilized (Unspecified)
system.ruby.network.int_links55.network_link0.link_utilization         8264                       # Number of cycles link is utilized (Unspecified)
system.ruby.network.int_links55.network_link1.link_utilization         3432                       # Number of cycles link is utilized (Unspecified)
system.ruby.network.int_links56.network_link0.link_utilization        10034                       # Number of cycles link is utilized (Unspecified)
system.ruby.network.int_links56.network_link1.link_utilization         2855                       # Number of cycles link is utilized (Unspecified)
system.ruby.network.int_links57.network_link0.link_utilization        11595                       # Number of cycles link is utilized (Unspecified)
system.ruby.network.int_links59.network_link0.link_utilization         7055                       # Number of cycles link is utilized (Unspecified)
system.ruby.network.int_links59.network_link1.link_utilization         2395                       # Number of cycles link is utilized (Unspecified)
system.ruby.network.int_links60.network_link0.link_utilization         8718                       # Number of cycles link is utilized (Unspecified)
system.ruby.network.int_links60.network_link1.link_utilization         2548                       # Number of cycles link is utilized (Unspecified)
system.ruby.network.int_links61.network_link0.link_utilization         8852                       # Number of cycles link is utilized (Unspecified)
system.ruby.network.int_links61.network_link1.link_utilization         1528                       # Number of cycles link is utilized (Unspecified)
system.ruby.network.int_links62.network_link0.link_utilization         6897                       # Number of cycles link is utilized (Unspecified)
system.ruby.network.int_links64.network_link0.link_utilization         1180                       # Number of cycles link is utilized (Unspecified)
system.ruby.network.int_links64.network_link1.link_utilization         4340                       # Number of cycles link is utilized (Unspecified)
system.ruby.network.int_links65.network_link0.link_utilization         4151                       # Number of cycles link is utilized (Unspecified)
system.ruby.network.int_links65.network_link1.link_utilization         3640                       # Number of cycles link is utilized (Unspecified)
system.ruby.network.int_links66.network_link0.link_utilization         5344                       # Number of cycles link is utilized (Unspecified)
system.ruby.network.int_links66.network_link1.link_utilization         2867                       # Number of cycles link is utilized (Unspecified)
system.ruby.network.int_links67.network_link0.link_utilization         5508                       # Number of cycles link is utilized (Unspecified)
system.ruby.network.int_links69.network_link0.link_utilization          378                       # Number of cycles link is utilized (Unspecified)
system.ruby.network.int_links69.network_link1.link_utilization         3769                       # Number of cycles link is utilized (Unspecified)
system.ruby.network.int_links70.network_link0.link_utilization         5009                       # Number of cycles link is utilized (Unspecified)
system.ruby.network.int_links70.network_link1.link_utilization         1384                       # Number of cycles link is utilized (Unspecified)
system.ruby.network.int_links71.network_link0.link_utilization         3994                       # Number of cycles link is utilized (Unspecified)
system.ruby.network.int_links71.network_link1.link_utilization         2599                       # Number of cycles link is utilized (Unspecified)
system.ruby.network.int_links74.network_link0.link_utilization         5698                       # Number of cycles link is utilized (Unspecified)
system.ruby.network.int_links74.network_link1.link_utilization          853                       # Number of cycles link is utilized (Unspecified)
system.ruby.network.int_links75.network_link0.link_utilization         2887                       # Number of cycles link is utilized (Unspecified)
system.ruby.network.int_links75.network_link1.link_utilization         3417                       # Number of cycles link is utilized (Unspecified)
system.ruby.network.int_links76.network_link0.link_utilization         2792                       # Number of cycles link is utilized (Unspecified)
system.ruby.network.int_links76.network_link1.link_utilization         3478                       # Number of cycles link is utilized (Unspecified)
system.ruby.network.int_links79.network_link0.link_utilization         4045                       # Number of cycles link is utilized (Unspecified)
system.ruby.network.int_links79.network_link1.link_utilization         6041                       # Number of cycles link is utilized (Unspecified)
system.ruby.network.int_links80.network_link0.link_utilization         3445                       # Number of cycles link is utilized (Unspecified)
system.ruby.network.int_links80.network_link1.link_utilization        10776                       # Number of cycles link is utilized (Unspecified)
system.ruby.network.int_links81.network_link0.link_utilization         3438                       # Number of cycles link is utilized (Unspecified)
system.ruby.network.int_links81.network_link1.link_utilization        10946                       # Number of cycles link is utilized (Unspecified)
system.ruby.network.int_links82.network_link1.link_utilization         9907                       # Number of cycles link is utilized (Unspecified)
system.ruby.network.int_links84.network_link0.link_utilization         6110                       # Number of cycles link is utilized (Unspecified)
system.ruby.network.int_links84.network_link1.link_utilization         5874                       # Number of cycles link is utilized (Unspecified)
system.ruby.network.int_links85.network_link0.link_utilization         5019                       # Number of cycles link is utilized (Unspecified)
system.ruby.network.int_links85.network_link1.link_utilization        10091                       # Number of cycles link is utilized (Unspecified)
system.ruby.network.int_links86.network_link0.link_utilization         4875                       # Number of cycles link is utilized (Unspecified)
system.ruby.network.int_links86.network_link1.link_utilization         9621                       # Number of cycles link is utilized (Unspecified)
system.ruby.network.int_links87.network_link1.link_utilization         7292                       # Number of cycles link is utilized (Unspecified)
system.ruby.network.int_links89.network_link0.link_utilization          985                       # Number of cycles link is utilized (Unspecified)
system.ruby.network.int_links89.network_link1.link_utilization         4035                       # Number of cycles link is utilized (Unspecified)
system.ruby.network.int_links90.network_link0.link_utilization          384                       # Number of cycles link is utilized (Unspecified)
system.ruby.network.int_links90.network_link1.link_utilization         7535                       # Number of cycles link is utilized (Unspecified)
system.ruby.network.int_links91.network_link0.link_utilization          520                       # Number of cycles link is utilized (Unspecified)
system.ruby.network.int_links91.network_link1.link_utilization         7833                       # Number of cycles link is utilized (Unspecified)
system.ruby.network.int_links92.network_link1.link_utilization         6801                       # Number of cycles link is utilized (Unspecified)
system.ruby.network.int_links94.network_link0.link_utilization         1162                       # Number of cycles link is utilized (Unspecified)
system.ruby.network.int_links94.network_link1.link_utilization         1197                       # Number of cycles link is utilized (Unspecified)
system.ruby.network.int_links95.network_link0.link_utilization          265                       # Number of cycles link is utilized (Unspecified)
system.ruby.network.int_links95.network_link1.link_utilization         4181                       # Number of cycles link is utilized (Unspecified)
system.ruby.network.int_links96.network_link0.link_utilization          375                       # Number of cycles link is utilized (Unspecified)
system.ruby.network.int_links96.network_link1.link_utilization         4122                       # Number of cycles link is utilized (Unspecified)
system.ruby.network.network_sim_ticks           36774                       (Unspecified)
system.ruby.network.packet_network_latency |     3079925                       |     3085790                       |           0                       |           0                       |           0                       (Unspecified)
system.ruby.network.packet_queueing_latency |       96000                       |      108007                       |           0                       |           0                       |           0                       (Unspecified)
system.ruby.network.packets_injected     |       96000     50.00%     50.00% |       96000     50.00%    100.00% |           0      0.00%    100.00% |           0      0.00%    100.00% |           0      0.00%    100.00% (Unspecified)
system.ruby.network.packets_injected::total       192000                       (Unspecified)
system.ruby.network.packets_received     |       96000     50.00%     50.00% |       96000     50.00%    100.00% |           0      0.00%    100.00% |           0      0.00%    100.00% |           0      0.00%    100.00% (Unspecified)
system.ruby.network.packets_received::total       192000                       (Unspecified)
system.ruby.network.routers05.buffer_reads        28410                       (Unspecified)
system.ruby.network.routers05.buffer_writes        28410                       (Unspecified)
system.ruby.network.routers05.crossbar_activity        28410                       (Unspecified)
system.ruby.network.routers06.buffer_reads        41721                       (Unspecified)
system.ruby.network.routers06.buffer_writes        41721                       (Unspecified)
system.ruby.network.routers06.crossbar_activity        41721                       (Unspecified)
system.ruby.network.routers07.buffer_reads        42863                       (Unspecified)
system.ruby.network.routers07.buffer_writes        42863                       (Unspecified)
system.ruby.network.routers07.crossbar_activity        42863                       (Unspecified)
system.ruby.network.routers08.buffer_reads        25859                       (Unspecified)
system.ruby.network.routers08.buffer_writes        25859                       (Unspecified)
system.ruby.network.routers08.crossbar_activity        25859                       (Unspecified)
system.ruby.network.routers09.buffer_reads        25575                       (Unspecified)
system.ruby.network.routers09.buffer_writes        25575                       (Unspecified)
system.ruby.network.routers09.crossbar_activity        25575                       (Unspecified)
system.ruby.network.routers10.buffer_reads        22193                       (Unspecified)
system.ruby.network.routers10.buffer_writes        22193                       (Unspecified)
system.ruby.network.routers10.crossbar_activity        22193                       (Unspecified)
system.ruby.network.routers11.buffer_reads        51818                       (Unspecified)
system.ruby.network.routers11.buffer_writes        51818                       (Unspecified)
system.ruby.network.routers11.crossbar_activity        51818                       (Unspecified)
system.ruby.network.routers12.buffer_reads        55053                       (Unspecified)
system.ruby.network.routers12.buffer_writes        55053                       (Unspecified)
system.ruby.network.routers12.crossbar_activity        55053                       (Unspecified)
system.ruby.network.routers13.buffer_reads        27908                       (Unspecified)
system.ruby.network.routers13.buffer_writes        27908                       (Unspecified)
system.ruby.network.routers13.crossbar_activity        27908                       (Unspecified)
system.ruby.network.routers14.buffer_reads        14121                       (Unspecified)
system.ruby.network.routers14.buffer_writes        14121                       (Unspecified)
system.ruby.network.routers14.crossbar_activity        14121                       (Unspecified)
system.ruby.network.routers15.buffer_reads        39137                       (Unspecified)
system.ruby.network.routers15.buffer_writes        39137                       (Unspecified)
system.ruby.network.routers15.crossbar_activity        39137                       (Unspecified)
system.ruby.network.routers16.buffer_reads        61517                       (Unspecified)
system.ruby.network.routers16.buffer_writes        61517                       (Unspecified)
system.ruby.network.routers16.crossbar_activity        61517                       (Unspecified)
system.ruby.network.routers17.buffer_reads        61953                       (Unspecified)
system.ruby.network.routers17.buffer_writes        61953                       (Unspecified)
system.ruby.network.routers17.crossbar_activity        61953                       (Unspecified)
system.ruby.network.routers18.buffer_reads        38802                       (Unspecified)
system.ruby.network.routers18.buffer_writes        38802                       (Unspecified)
system.ruby.network.routers18.crossbar_activity        38802                       (Unspecified)
system.ruby.network.routers19.buffer_reads        33765                       (Unspecified)
system.ruby.network.routers19.buffer_writes        33765                       (Unspecified)
system.ruby.network.routers19.crossbar_activity        33765                       (Unspecified)
system.ruby.network.routers20.buffer_reads        28943                       (Unspecified)
system.ruby.network.routers20.buffer_writes        28943                       (Unspecified)
system.ruby.network.routers20.crossbar_activity        28943                       (Unspecified)
system.ruby.network.routers21.buffer_reads        56438                       (Unspecified)
system.ruby.network.routers21.buffer_writes        56438                       (Unspecified)
system.ruby.network.routers21.crossbar_activity        56438                       (Unspecified)
system.ruby.network.routers22.buffer_reads        53427                       (Unspecified)
system.ruby.network.routers22.buffer_writes        53427                       (Unspecified)
system.ruby.network.routers22.crossbar_activity        53427                       (Unspecified)
system.ruby.network.routers23.buffer_reads        34554                       (Unspecified)
system.ruby.network.routers23.buffer_writes        34554                       (Unspecified)
system.ruby.network.routers23.crossbar_activity        34554                       (Unspecified)
system.ruby.network.routers24.buffer_reads        26974                       (Unspecified)
system.ruby.network.routers24.buffer_writes        26974                       (Unspecified)
system.ruby.network.routers24.crossbar_activity        26974                       (Unspecified)
system.ruby.network.routers26.buffer_reads        27390                       (Unspecified)
system.ruby.network.routers26.buffer_writes        27390                       (Unspecified)
system.ruby.network.routers26.crossbar_activity        27390                       (Unspecified)
system.ruby.network.routers27.buffer_reads        17579                       (Unspecified)
system.ruby.network.routers27.buffer_writes        17579                       (Unspecified)
system.ruby.network.routers27.crossbar_activity        17579                       (Unspecified)
system.ruby.network.routers28.buffer_reads        24000                       (Unspecified)
system.ruby.network.routers28.buffer_writes        24000                       (Unspecified)
system.ruby.network.routers28.crossbar_activity        24000                       (Unspecified)

---------- End Simulation Statistics   ----------
